
OS:Version,
  {3f281096-c8a7-444a-a72d-db9099fb43a2}, !- Handle
  3.0.0,                                  !- Version Identifier
  beta;                                   !- Prerelease Identifier

OS:Building,
  {5ac58f88-979d-4b33-96b5-8d436179765a}, !- Handle
  90.1-2004|SecondarySchool,              !- Name
  ,                                       !- Building Sector Type
  ,                                       !- North Axis {deg}
  ,                                       !- Nominal Floor to Floor Height {m}
  ,                                       !- Space Type Name
  ,                                       !- Default Construction Set Name
  ;                                       !- Default Schedule Set Name

OS:SpaceType,
  {f4028608-f691-4072-8903-f7d794868b98}, !- Handle
  SecondarySchool Kitchen,                !- Name
  ,                                       !- Default Construction Set Name
  ,                                       !- Default Schedule Set Name
  {1331f3c6-8a69-449c-863f-e1091403b43a}, !- Group Rendering Name
  ,                                       !- Design Specification Outdoor Air Object Name
  ,                                       !- Standards Template
  SecondarySchool,                        !- Standards Building Type
  Kitchen;                                !- Standards Space Type

OS:Rendering:Color,
  {1331f3c6-8a69-449c-863f-e1091403b43a}, !- Handle
  SecondarySchool Kitchen,                !- Name
  78,                                     !- Rendering Red Value
  222,                                    !- Rendering Green Value
  133;                                    !- Rendering Blue Value

OS:SpaceType,
  {6f90b4a5-7d09-4552-be3f-08de32a7edfe}, !- Handle
  SecondarySchool Lobby,                  !- Name
  ,                                       !- Default Construction Set Name
  ,                                       !- Default Schedule Set Name
  {48b575dd-d3d4-4496-afbe-f178cbbf62d8}, !- Group Rendering Name
  ,                                       !- Design Specification Outdoor Air Object Name
  ,                                       !- Standards Template
  SecondarySchool,                        !- Standards Building Type
  Lobby;                                  !- Standards Space Type

OS:Rendering:Color,
  {48b575dd-d3d4-4496-afbe-f178cbbf62d8}, !- Handle
  SecondarySchool Lobby,                  !- Name
  230,                                    !- Rendering Red Value
  157,                                    !- Rendering Green Value
  120;                                    !- Rendering Blue Value

OS:SpaceType,
  {e101c4c6-8270-4ac1-880c-3ccfd2ecb790}, !- Handle
  SecondarySchool Restroom,               !- Name
  ,                                       !- Default Construction Set Name
  ,                                       !- Default Schedule Set Name
  {04d233da-8d46-4eae-ad2e-c975a17f9ac1}, !- Group Rendering Name
  ,                                       !- Design Specification Outdoor Air Object Name
  ,                                       !- Standards Template
  SecondarySchool,                        !- Standards Building Type
  Restroom;                               !- Standards Space Type

OS:Rendering:Color,
  {04d233da-8d46-4eae-ad2e-c975a17f9ac1}, !- Handle
  SecondarySchool Restroom,               !- Name
  169,                                    !- Rendering Red Value
  169,                                    !- Rendering Green Value
  31;                                     !- Rendering Blue Value

OS:SpaceType,
  {80d9ecd5-7b6c-466d-a6df-8ec36d56a518}, !- Handle
  SecondarySchool Cafeteria,              !- Name
  ,                                       !- Default Construction Set Name
  ,                                       !- Default Schedule Set Name
  {bf6cb238-4024-4784-8174-c407f08096f7}, !- Group Rendering Name
  ,                                       !- Design Specification Outdoor Air Object Name
  ,                                       !- Standards Template
  SecondarySchool,                        !- Standards Building Type
  Cafeteria;                              !- Standards Space Type

OS:Rendering:Color,
  {bf6cb238-4024-4784-8174-c407f08096f7}, !- Handle
  SecondarySchool Cafeteria,              !- Name
  31,                                     !- Rendering Red Value
  169,                                    !- Rendering Green Value
  34;                                     !- Rendering Blue Value

OS:SpaceType,
  {a9d10f7f-7dd0-4233-ac1e-b671f6155d7c}, !- Handle
  SecondarySchool Mechanical,             !- Name
  ,                                       !- Default Construction Set Name
  ,                                       !- Default Schedule Set Name
  {462b7a0d-25d1-4ff7-9a6e-fd0e7f444a46}, !- Group Rendering Name
  ,                                       !- Design Specification Outdoor Air Object Name
  ,                                       !- Standards Template
  SecondarySchool,                        !- Standards Building Type
  Mechanical;                             !- Standards Space Type

OS:Rendering:Color,
  {462b7a0d-25d1-4ff7-9a6e-fd0e7f444a46}, !- Handle
  SecondarySchool Mechanical,             !- Name
  41,                                     !- Rendering Red Value
  31,                                     !- Rendering Green Value
  169;                                    !- Rendering Blue Value

OS:SpaceType,
  {1d7ad5e2-0e1b-4b95-a01e-8f8afcdc9ab4}, !- Handle
  SecondarySchool Library,                !- Name
  ,                                       !- Default Construction Set Name
  ,                                       !- Default Schedule Set Name
  {239a3bba-8137-4bc0-b1bd-4945a6dcd330}, !- Group Rendering Name
  ,                                       !- Design Specification Outdoor Air Object Name
  ,                                       !- Standards Template
  SecondarySchool,                        !- Standards Building Type
  Library;                                !- Standards Space Type

OS:Rendering:Color,
  {239a3bba-8137-4bc0-b1bd-4945a6dcd330}, !- Handle
  SecondarySchool Library,                !- Name
  230,                                    !- Rendering Red Value
  196,                                    !- Rendering Green Value
  120;                                    !- Rendering Blue Value

OS:SpaceType,
  {374f452b-a294-4590-b1e2-98e89b3da2c1}, !- Handle
  SecondarySchool ComputerRoom,           !- Name
  ,                                       !- Default Construction Set Name
  ,                                       !- Default Schedule Set Name
  {b7474d62-c2c5-45b2-bfd0-8725353e04b1}, !- Group Rendering Name
  ,                                       !- Design Specification Outdoor Air Object Name
  ,                                       !- Standards Template
  SecondarySchool,                        !- Standards Building Type
  ComputerRoom;                           !- Standards Space Type

OS:Rendering:Color,
  {b7474d62-c2c5-45b2-bfd0-8725353e04b1}, !- Handle
  SecondarySchool ComputerRoom,           !- Name
  120,                                    !- Rendering Red Value
  230,                                    !- Rendering Green Value
  199;                                    !- Rendering Blue Value

OS:SpaceType,
  {f53aeda8-3b6a-4ac6-8600-6c407b987183}, !- Handle
  SecondarySchool Auditorium,             !- Name
  ,                                       !- Default Construction Set Name
  ,                                       !- Default Schedule Set Name
  {8947b09f-a88d-480d-a3a2-5657549438a4}, !- Group Rendering Name
  ,                                       !- Design Specification Outdoor Air Object Name
  ,                                       !- Standards Template
  SecondarySchool,                        !- Standards Building Type
  Auditorium;                             !- Standards Space Type

OS:Rendering:Color,
  {8947b09f-a88d-480d-a3a2-5657549438a4}, !- Handle
  SecondarySchool Auditorium,             !- Name
  230,                                    !- Rendering Red Value
  196,                                    !- Rendering Green Value
  120;                                    !- Rendering Blue Value

OS:SpaceType,
  {0ca0ef09-fbd8-4cf4-ba80-0061e6d0cbce}, !- Handle
  SecondarySchool Office,                 !- Name
  ,                                       !- Default Construction Set Name
  ,                                       !- Default Schedule Set Name
  {ff4497c7-dfd1-4f16-a03e-6d6c3e7994b1}, !- Group Rendering Name
  ,                                       !- Design Specification Outdoor Air Object Name
  ,                                       !- Standards Template
  SecondarySchool,                        !- Standards Building Type
  Office;                                 !- Standards Space Type

OS:Rendering:Color,
  {ff4497c7-dfd1-4f16-a03e-6d6c3e7994b1}, !- Handle
  SecondarySchool Office,                 !- Name
  120,                                    !- Rendering Red Value
  230,                                    !- Rendering Green Value
  199;                                    !- Rendering Blue Value

OS:SpaceType,
  {08b0c6cb-9ee9-4704-a1a9-2069fd6f9646}, !- Handle
  SecondarySchool Gym,                    !- Name
  ,                                       !- Default Construction Set Name
  ,                                       !- Default Schedule Set Name
  {31c567ef-5486-4085-aacb-13e6133d636f}, !- Group Rendering Name
  ,                                       !- Design Specification Outdoor Air Object Name
  ,                                       !- Standards Template
  SecondarySchool,                        !- Standards Building Type
  Gym;                                    !- Standards Space Type

OS:Rendering:Color,
  {31c567ef-5486-4085-aacb-13e6133d636f}, !- Handle
  SecondarySchool Gym,                    !- Name
  154,                                    !- Rendering Red Value
  230,                                    !- Rendering Green Value
  120;                                    !- Rendering Blue Value

OS:SpaceType,
  {982e88ac-bc6a-4acd-a839-0e487aec9a8d}, !- Handle
  SecondarySchool Corridor,               !- Name
  ,                                       !- Default Construction Set Name
  ,                                       !- Default Schedule Set Name
  {0ffde0a3-8916-4e64-bf60-0f8f2f17cb42}, !- Group Rendering Name
  ,                                       !- Design Specification Outdoor Air Object Name
  ,                                       !- Standards Template
  SecondarySchool,                        !- Standards Building Type
  Corridor;                               !- Standards Space Type

OS:Rendering:Color,
  {0ffde0a3-8916-4e64-bf60-0f8f2f17cb42}, !- Handle
  SecondarySchool Corridor,               !- Name
  169,                                    !- Rendering Red Value
  31,                                     !- Rendering Green Value
  31;                                     !- Rendering Blue Value

OS:SpaceType,
  {6f205e80-7783-401f-bd32-641919aef779}, !- Handle
  SecondarySchool Classroom,              !- Name
  ,                                       !- Default Construction Set Name
  ,                                       !- Default Schedule Set Name
  {adee3129-3031-452c-9eec-87c49d809ba2}, !- Group Rendering Name
  ,                                       !- Design Specification Outdoor Air Object Name
  ,                                       !- Standards Template
  SecondarySchool,                        !- Standards Building Type
  Classroom;                              !- Standards Space Type

OS:Rendering:Color,
  {adee3129-3031-452c-9eec-87c49d809ba2}, !- Handle
  SecondarySchool Classroom,              !- Name
  120,                                    !- Rendering Red Value
  230,                                    !- Rendering Green Value
  199;                                    !- Rendering Blue Value

OS:Site,
  {550c9869-a0f4-4cab-ab85-b4d69ae41714}, !- Handle
  Site 1,                                 !- Name
  ,                                       !- Latitude {deg}
  ,                                       !- Longitude {deg}
  ,                                       !- Time Zone {hr}
  ,                                       !- Elevation {m}
  ;                                       !- Terrain

OS:BuildingStory,
  {356bca46-8b15-469d-91c1-9656b53b9e14}, !- Handle
  Story Ground,                           !- Name
  0,                                      !- Nominal Z Coordinate {m}
  3.9624,                                 !- Nominal Floor to Floor Height {m}
  ,                                       !- Default Construction Set Name
  ,                                       !- Default Schedule Set Name
  ;                                       !- Group Rendering Name

OS:Space,
  {9b3add18-f381-4916-9a30-c9541976426b}, !- Handle
  SecondarySchool Classroom A end_a - Story Ground, !- Name
  {6f205e80-7783-401f-bd32-641919aef779}, !- Space Type Name
  ,                                       !- Default Construction Set Name
  ,                                       !- Default Schedule Set Name
  -0,                                     !- Direction of Relative North {deg}
  -82.6256550198952,                      !- X Origin {m}
  -17.0032615711412,                      !- Y Origin {m}
  0,                                      !- Z Origin {m}
  {356bca46-8b15-469d-91c1-9656b53b9e14}, !- Building Story Name
  {41f8bac6-5c83-4942-90c3-0a9192b0705d}; !- Thermal Zone Name

OS:Surface,
  {073724a2-98be-4b56-b4a1-41e1691c97ee}, !- Handle
  Surface 1,                              !- Name
  Floor,                                  !- Surface Type
  ,                                       !- Construction Name
  {9b3add18-f381-4916-9a30-c9541976426b}, !- Space Name
  Ground,                                 !- Outside Boundary Condition
  ,                                       !- Outside Boundary Condition Object
  NoSun,                                  !- Sun Exposure
  NoWind,                                 !- Wind Exposure
  ,                                       !- View Factor to Ground
  ,                                       !- Number of Vertices
  4.2632564145606e-14, -3.5527136788005e-14, 0, !- X,Y,Z Vertex 1 {m}
  4.2632564145606e-14, 9.97240471318038, 0, !- X,Y,Z Vertex 2 {m}
  4.57200000000005, 9.97240471318038, 0,  !- X,Y,Z Vertex 3 {m}
  4.57200000000005, -3.5527136788005e-14, 0; !- X,Y,Z Vertex 4 {m}

OS:Surface,
  {6b22394b-e514-42da-a2c5-e53750411e77}, !- Handle
  Surface 2,                              !- Name
  Wall,                                   !- Surface Type
  ,                                       !- Construction Name
  {9b3add18-f381-4916-9a30-c9541976426b}, !- Space Name
  Outdoors,                               !- Outside Boundary Condition
  ,                                       !- Outside Boundary Condition Object
  SunExposed,                             !- Sun Exposure
  WindExposed,                            !- Wind Exposure
  ,                                       !- View Factor to Ground
  ,                                       !- Number of Vertices
  4.2632564145606e-14, 9.97240471318038, 3.9624, !- X,Y,Z Vertex 1 {m}
  4.2632564145606e-14, 9.97240471318038, 0, !- X,Y,Z Vertex 2 {m}
  4.2632564145606e-14, -3.5527136788005e-14, 0, !- X,Y,Z Vertex 3 {m}
  4.2632564145606e-14, -3.5527136788005e-14, 3.9624; !- X,Y,Z Vertex 4 {m}

OS:Surface,
  {39e02587-5e6c-4224-b115-8d18f6d83ea6}, !- Handle
  Surface 3,                              !- Name
  Wall,                                   !- Surface Type
  ,                                       !- Construction Name
  {9b3add18-f381-4916-9a30-c9541976426b}, !- Space Name
  Surface,                                !- Outside Boundary Condition
  {879f11c7-bb49-4ca5-a994-a19e8a1be3c6}, !- Outside Boundary Condition Object
  NoSun,                                  !- Sun Exposure
  NoWind,                                 !- Wind Exposure
  ,                                       !- View Factor to Ground
  ,                                       !- Number of Vertices
  4.57200000000005, 9.97240471318038, 3.9624, !- X,Y,Z Vertex 1 {m}
  4.57200000000005, 9.97240471318038, 0,  !- X,Y,Z Vertex 2 {m}
  4.2632564145606e-14, 9.97240471318038, 0, !- X,Y,Z Vertex 3 {m}
  4.2632564145606e-14, 9.97240471318038, 3.9624; !- X,Y,Z Vertex 4 {m}

OS:Surface,
  {ee7a6243-eb11-4aeb-b806-986cd4527744}, !- Handle
  Surface 4,                              !- Name
  Wall,                                   !- Surface Type
  ,                                       !- Construction Name
  {9b3add18-f381-4916-9a30-c9541976426b}, !- Space Name
  Surface,                                !- Outside Boundary Condition
  {65c61db5-fda2-46c5-9c4c-49de12bd27d2}, !- Outside Boundary Condition Object
  NoSun,                                  !- Sun Exposure
  NoWind,                                 !- Wind Exposure
  ,                                       !- View Factor to Ground
  ,                                       !- Number of Vertices
  4.57200000000005, -3.5527136788005e-14, 3.9624, !- X,Y,Z Vertex 1 {m}
  4.57200000000005, -3.5527136788005e-14, 0, !- X,Y,Z Vertex 2 {m}
  4.57200000000005, 9.97240471318038, 0,  !- X,Y,Z Vertex 3 {m}
  4.57200000000005, 9.97240471318038, 3.9624; !- X,Y,Z Vertex 4 {m}

OS:Surface,
  {910c2a6f-c385-4466-8fa8-aa1951eea798}, !- Handle
  Surface 5,                              !- Name
  Wall,                                   !- Surface Type
  ,                                       !- Construction Name
  {9b3add18-f381-4916-9a30-c9541976426b}, !- Space Name
  Outdoors,                               !- Outside Boundary Condition
  ,                                       !- Outside Boundary Condition Object
  SunExposed,                             !- Sun Exposure
  WindExposed,                            !- Wind Exposure
  ,                                       !- View Factor to Ground
  ,                                       !- Number of Vertices
  4.2632564145606e-14, -3.5527136788005e-14, 3.9624, !- X,Y,Z Vertex 1 {m}
  4.2632564145606e-14, -3.5527136788005e-14, 0, !- X,Y,Z Vertex 2 {m}
  4.57200000000005, -3.5527136788005e-14, 0, !- X,Y,Z Vertex 3 {m}
  4.57200000000005, -3.5527136788005e-14, 3.9624; !- X,Y,Z Vertex 4 {m}

OS:Surface,
  {42694ca7-8c2b-43d8-93a9-0dfeb0b1b02e}, !- Handle
  Surface 6,                              !- Name
  RoofCeiling,                            !- Surface Type
  ,                                       !- Construction Name
  {9b3add18-f381-4916-9a30-c9541976426b}, !- Space Name
  Surface,                                !- Outside Boundary Condition
  {21a3c8c3-1cf4-49d4-b32d-1783ad278290}, !- Outside Boundary Condition Object
  NoSun,                                  !- Sun Exposure
  NoWind,                                 !- Wind Exposure
  ,                                       !- View Factor to Ground
  ,                                       !- Number of Vertices
  4.57200000000005, -3.5527136788005e-14, 3.9624, !- X,Y,Z Vertex 1 {m}
  4.57200000000005, 9.97240471318038, 3.9624, !- X,Y,Z Vertex 2 {m}
  4.2632564145606e-14, 9.97240471318038, 3.9624, !- X,Y,Z Vertex 3 {m}
  4.2632564145606e-14, -3.5527136788005e-14, 3.9624; !- X,Y,Z Vertex 4 {m}

OS:ThermalZone,
  {41f8bac6-5c83-4942-90c3-0a9192b0705d}, !- Handle
  Zone SecondarySchool Classroom A end_a - Story Ground, !- Name
  1,                                      !- Multiplier
  ,                                       !- Ceiling Height {m}
  ,                                       !- Volume {m3}
  ,                                       !- Floor Area {m2}
  ,                                       !- Zone Inside Convection Algorithm
  ,                                       !- Zone Outside Convection Algorithm
  ,                                       !- Zone Conditioning Equipment List Name
  {9ad9cc50-209d-49f7-b73d-b9674dc019ee}, !- Zone Air Inlet Port List
  {0eac9baa-029a-4f12-b582-7d1e2f6bac8f}, !- Zone Air Exhaust Port List
  {23a2d31a-2e21-4100-b317-fb5d97f300da}, !- Zone Air Node Name
  {4787d920-2155-49c0-9e42-d446ef8094ee}, !- Zone Return Air Port List
  ,                                       !- Primary Daylighting Control Name
  ,                                       !- Fraction of Zone Controlled by Primary Daylighting Control
  ,                                       !- Secondary Daylighting Control Name
  ,                                       !- Fraction of Zone Controlled by Secondary Daylighting Control
  ,                                       !- Illuminance Map Name
  ,                                       !- Group Rendering Name
  ,                                       !- Thermostat Name
  No;                                     !- Use Ideal Air Loads

OS:Node,
  {76a73ded-0ccc-436b-bcca-367216ec4bfa}, !- Handle
  Node 1,                                 !- Name
  {23a2d31a-2e21-4100-b317-fb5d97f300da}, !- Inlet Port
  ;                                       !- Outlet Port

OS:Connection,
  {23a2d31a-2e21-4100-b317-fb5d97f300da}, !- Handle
  {7888b16c-45d7-4aa3-97d8-4fa5e9f71c3e}, !- Name
  {41f8bac6-5c83-4942-90c3-0a9192b0705d}, !- Source Object
  11,                                     !- Outlet Port
  {76a73ded-0ccc-436b-bcca-367216ec4bfa}, !- Target Object
  2;                                      !- Inlet Port

OS:PortList,
  {9ad9cc50-209d-49f7-b73d-b9674dc019ee}, !- Handle
  {de576d5e-53fa-444b-ab69-22b6b3921547}, !- Name
  {41f8bac6-5c83-4942-90c3-0a9192b0705d}; !- HVAC Component

OS:PortList,
  {0eac9baa-029a-4f12-b582-7d1e2f6bac8f}, !- Handle
  {946f0859-5de2-4c3f-ba42-39d1127b0ec1}, !- Name
  {41f8bac6-5c83-4942-90c3-0a9192b0705d}; !- HVAC Component

OS:PortList,
  {4787d920-2155-49c0-9e42-d446ef8094ee}, !- Handle
  {6b05745d-21d2-4703-81d6-ede4c3fb2226}, !- Name
  {41f8bac6-5c83-4942-90c3-0a9192b0705d}; !- HVAC Component

OS:Sizing:Zone,
  {34a31030-4d22-466c-a62e-17a8493354e3}, !- Handle
  {41f8bac6-5c83-4942-90c3-0a9192b0705d}, !- Zone or ZoneList Name
  SupplyAirTemperature,                   !- Zone Cooling Design Supply Air Temperature Input Method
  14,                                     !- Zone Cooling Design Supply Air Temperature {C}
  11.11,                                  !- Zone Cooling Design Supply Air Temperature Difference {deltaC}
  SupplyAirTemperature,                   !- Zone Heating Design Supply Air Temperature Input Method
  40,                                     !- Zone Heating Design Supply Air Temperature {C}
  11.11,                                  !- Zone Heating Design Supply Air Temperature Difference {deltaC}
  0.0085,                                 !- Zone Cooling Design Supply Air Humidity Ratio {kg-H2O/kg-air}
  0.008,                                  !- Zone Heating Design Supply Air Humidity Ratio {kg-H2O/kg-air}
  ,                                       !- Zone Heating Sizing Factor
  ,                                       !- Zone Cooling Sizing Factor
  DesignDay,                              !- Cooling Design Air Flow Method
  ,                                       !- Cooling Design Air Flow Rate {m3/s}
  ,                                       !- Cooling Minimum Air Flow per Zone Floor Area {m3/s-m2}
  ,                                       !- Cooling Minimum Air Flow {m3/s}
  ,                                       !- Cooling Minimum Air Flow Fraction
  DesignDay,                              !- Heating Design Air Flow Method
  ,                                       !- Heating Design Air Flow Rate {m3/s}
  ,                                       !- Heating Maximum Air Flow per Zone Floor Area {m3/s-m2}
  ,                                       !- Heating Maximum Air Flow {m3/s}
  ,                                       !- Heating Maximum Air Flow Fraction
  ,                                       !- Design Zone Air Distribution Effectiveness in Cooling Mode
  ,                                       !- Design Zone Air Distribution Effectiveness in Heating Mode
  No,                                     !- Account for Dedicated Outdoor Air System
  NeutralSupplyAir,                       !- Dedicated Outdoor Air System Control Strategy
  autosize,                               !- Dedicated Outdoor Air Low Setpoint Temperature for Design {C}
  autosize;                               !- Dedicated Outdoor Air High Setpoint Temperature for Design {C}

OS:ZoneHVAC:EquipmentList,
  {104768e5-7de0-443a-95a6-c191ebbe3ec4}, !- Handle
  Zone HVAC Equipment List 1,             !- Name
  {41f8bac6-5c83-4942-90c3-0a9192b0705d}; !- Thermal Zone

OS:Space,
  {9e98e49b-9a75-4a0a-b9b0-807a6f140868}, !- Handle
  SecondarySchool Corridor B end_a - Story Ground, !- Name
  {982e88ac-bc6a-4acd-a839-0e487aec9a8d}, !- Space Type Name
  ,                                       !- Default Construction Set Name
  ,                                       !- Default Schedule Set Name
  -0,                                     !- Direction of Relative North {deg}
  -82.6256550198952,                      !- X Origin {m}
  -7.03085685796078,                      !- Y Origin {m}
  0,                                      !- Z Origin {m}
  {356bca46-8b15-469d-91c1-9656b53b9e14}, !- Building Story Name
  {e777e81b-d8d2-487d-a28a-97efb5b1c399}; !- Thermal Zone Name

OS:Surface,
  {c4b1b5f6-b93f-4b3b-80a6-319f7168d27e}, !- Handle
  Surface 7,                              !- Name
  Floor,                                  !- Surface Type
  ,                                       !- Construction Name
  {9e98e49b-9a75-4a0a-b9b0-807a6f140868}, !- Space Name
  Ground,                                 !- Outside Boundary Condition
  ,                                       !- Outside Boundary Condition Object
  NoSun,                                  !- Sun Exposure
  NoWind,                                 !- Wind Exposure
  ,                                       !- View Factor to Ground
  ,                                       !- Number of Vertices
  4.2632564145606e-14, 1.77635683940025e-15, 0, !- X,Y,Z Vertex 1 {m}
  4.2632564145606e-14, 14.0617137159216, 0, !- X,Y,Z Vertex 2 {m}
  4.57200000000005, 14.0617137159216, 0,  !- X,Y,Z Vertex 3 {m}
  4.57200000000005, 1.77635683940025e-15, 0; !- X,Y,Z Vertex 4 {m}

OS:Surface,
  {976d64c8-4c53-46c8-b28d-4fc0530bff6d}, !- Handle
  Surface 8,                              !- Name
  Wall,                                   !- Surface Type
  ,                                       !- Construction Name
  {9e98e49b-9a75-4a0a-b9b0-807a6f140868}, !- Space Name
  Outdoors,                               !- Outside Boundary Condition
  ,                                       !- Outside Boundary Condition Object
  SunExposed,                             !- Sun Exposure
  WindExposed,                            !- Wind Exposure
  ,                                       !- View Factor to Ground
  ,                                       !- Number of Vertices
  4.2632564145606e-14, 14.0617137159216, 3.9624, !- X,Y,Z Vertex 1 {m}
  4.2632564145606e-14, 14.0617137159216, 0, !- X,Y,Z Vertex 2 {m}
  4.2632564145606e-14, 1.77635683940025e-15, 0, !- X,Y,Z Vertex 3 {m}
  4.2632564145606e-14, 1.77635683940025e-15, 3.9624; !- X,Y,Z Vertex 4 {m}

OS:Surface,
  {8309b87c-c932-4a39-8322-7b1f7ac55d5f}, !- Handle
  Surface 9,                              !- Name
  Wall,                                   !- Surface Type
  ,                                       !- Construction Name
  {9e98e49b-9a75-4a0a-b9b0-807a6f140868}, !- Space Name
  Surface,                                !- Outside Boundary Condition
  {bf56d98d-e861-40e0-bdb8-da80ff177260}, !- Outside Boundary Condition Object
  NoSun,                                  !- Sun Exposure
  NoWind,                                 !- Wind Exposure
  ,                                       !- View Factor to Ground
  ,                                       !- Number of Vertices
  4.57200000000005, 14.0617137159216, 3.9624, !- X,Y,Z Vertex 1 {m}
  4.57200000000005, 14.0617137159216, 0,  !- X,Y,Z Vertex 2 {m}
  4.2632564145606e-14, 14.0617137159216, 0, !- X,Y,Z Vertex 3 {m}
  4.2632564145606e-14, 14.0617137159216, 3.9624; !- X,Y,Z Vertex 4 {m}

OS:Surface,
  {03d51364-30c6-401f-89dc-c4cbe13a409e}, !- Handle
  Surface 10,                             !- Name
  Wall,                                   !- Surface Type
  ,                                       !- Construction Name
  {9e98e49b-9a75-4a0a-b9b0-807a6f140868}, !- Space Name
  Surface,                                !- Outside Boundary Condition
  {c2d7d566-a21c-401c-bb30-76c161e899df}, !- Outside Boundary Condition Object
  NoSun,                                  !- Sun Exposure
  NoWind,                                 !- Wind Exposure
  ,                                       !- View Factor to Ground
  ,                                       !- Number of Vertices
  4.57200000000005, 1.77635683940025e-15, 3.9624, !- X,Y,Z Vertex 1 {m}
  4.57200000000005, 1.77635683940025e-15, 0, !- X,Y,Z Vertex 2 {m}
  4.57200000000005, 14.0617137159216, 0,  !- X,Y,Z Vertex 3 {m}
  4.57200000000005, 14.0617137159216, 3.9624; !- X,Y,Z Vertex 4 {m}

OS:Surface,
  {879f11c7-bb49-4ca5-a994-a19e8a1be3c6}, !- Handle
  Surface 11,                             !- Name
  Wall,                                   !- Surface Type
  ,                                       !- Construction Name
  {9e98e49b-9a75-4a0a-b9b0-807a6f140868}, !- Space Name
  Surface,                                !- Outside Boundary Condition
  {39e02587-5e6c-4224-b115-8d18f6d83ea6}, !- Outside Boundary Condition Object
  NoSun,                                  !- Sun Exposure
  NoWind,                                 !- Wind Exposure
  ,                                       !- View Factor to Ground
  ,                                       !- Number of Vertices