
OS:Version,
  {40784d74-85bb-47d6-be7c-3c1b938e6c5e}, !- Handle
  3.0.0;                                  !- Version Identifier

OS:Building,
  {4c3495c0-53d2-4161-acf7-5abe34d6cc33}, !- Handle
  90.1-2004|SecondarySchool,              !- Name
  ,                                       !- Building Sector Type
  ,                                       !- North Axis {deg}
  ,                                       !- Nominal Floor to Floor Height {m}
  ,                                       !- Space Type Name
  ,                                       !- Default Construction Set Name
  ;                                       !- Default Schedule Set Name

OS:SpaceType,
  {35e0cff0-4ce5-4c4d-9283-1d64a4b80620}, !- Handle
  SecondarySchool Kitchen,                !- Name
  ,                                       !- Default Construction Set Name
  ,                                       !- Default Schedule Set Name
  {746210b6-e2e2-4199-aecd-979e29cc6eda}, !- Group Rendering Name
  ,                                       !- Design Specification Outdoor Air Object Name
  ,                                       !- Standards Template
  SecondarySchool,                        !- Standards Building Type
  Kitchen;                                !- Standards Space Type

OS:Rendering:Color,
  {746210b6-e2e2-4199-aecd-979e29cc6eda}, !- Handle
  SecondarySchool Kitchen,                !- Name
  78,                                     !- Rendering Red Value
  222,                                    !- Rendering Green Value
  133;                                    !- Rendering Blue Value

OS:SpaceType,
  {ec7a029f-eb6b-450f-bae4-4d81493e92b5}, !- Handle
  SecondarySchool Restroom,               !- Name
  ,                                       !- Default Construction Set Name
  ,                                       !- Default Schedule Set Name
  {2353bf71-b3dc-41ad-ab5c-16c2c02714d5}, !- Group Rendering Name
  ,                                       !- Design Specification Outdoor Air Object Name
  ,                                       !- Standards Template
  SecondarySchool,                        !- Standards Building Type
  Restroom;                               !- Standards Space Type

OS:Rendering:Color,
  {2353bf71-b3dc-41ad-ab5c-16c2c02714d5}, !- Handle
  SecondarySchool Restroom,               !- Name
  169,                                    !- Rendering Red Value
  169,                                    !- Rendering Green Value
  31;                                     !- Rendering Blue Value

OS:SpaceType,
  {b36d20d2-5b16-46a0-8348-209d025fe38a}, !- Handle
  SecondarySchool Lobby,                  !- Name
  ,                                       !- Default Construction Set Name
  ,                                       !- Default Schedule Set Name
  {7c158fb3-623e-4636-a8b1-3a7ebbc4abec}, !- Group Rendering Name
  ,                                       !- Design Specification Outdoor Air Object Name
  ,                                       !- Standards Template
  SecondarySchool,                        !- Standards Building Type
  Lobby;                                  !- Standards Space Type

OS:Rendering:Color,
  {7c158fb3-623e-4636-a8b1-3a7ebbc4abec}, !- Handle
  SecondarySchool Lobby,                  !- Name
  230,                                    !- Rendering Red Value
  157,                                    !- Rendering Green Value
  120;                                    !- Rendering Blue Value

OS:SpaceType,
  {16c374fb-5f3d-436f-a8e5-85f6595bd18a}, !- Handle
  SecondarySchool Cafeteria,              !- Name
  ,                                       !- Default Construction Set Name
  ,                                       !- Default Schedule Set Name
  {6abc14ab-5df9-4b5c-b2d8-206ecdc54fab}, !- Group Rendering Name
  ,                                       !- Design Specification Outdoor Air Object Name
  ,                                       !- Standards Template
  SecondarySchool,                        !- Standards Building Type
  Cafeteria;                              !- Standards Space Type

OS:Rendering:Color,
  {6abc14ab-5df9-4b5c-b2d8-206ecdc54fab}, !- Handle
  SecondarySchool Cafeteria,              !- Name
  31,                                     !- Rendering Red Value
  169,                                    !- Rendering Green Value
  34;                                     !- Rendering Blue Value

OS:SpaceType,
  {05b229bd-9825-4e59-b96f-aa8fbe20eb73}, !- Handle
  SecondarySchool Mechanical,             !- Name
  ,                                       !- Default Construction Set Name
  ,                                       !- Default Schedule Set Name
  {c4eb341c-818c-428d-8713-ae06572cdcaa}, !- Group Rendering Name
  ,                                       !- Design Specification Outdoor Air Object Name
  ,                                       !- Standards Template
  SecondarySchool,                        !- Standards Building Type
  Mechanical;                             !- Standards Space Type

OS:Rendering:Color,
  {c4eb341c-818c-428d-8713-ae06572cdcaa}, !- Handle
  SecondarySchool Mechanical,             !- Name
  41,                                     !- Rendering Red Value
  31,                                     !- Rendering Green Value
  169;                                    !- Rendering Blue Value

OS:SpaceType,
  {657fa712-7a64-40b5-b8a6-cbe8bc927039}, !- Handle
  SecondarySchool Library,                !- Name
  ,                                       !- Default Construction Set Name
  ,                                       !- Default Schedule Set Name
  {5ffb4756-9ae4-4938-a828-636b4c967737}, !- Group Rendering Name
  ,                                       !- Design Specification Outdoor Air Object Name
  ,                                       !- Standards Template
  SecondarySchool,                        !- Standards Building Type
  Library;                                !- Standards Space Type

OS:Rendering:Color,
  {5ffb4756-9ae4-4938-a828-636b4c967737}, !- Handle
  SecondarySchool Library,                !- Name
  230,                                    !- Rendering Red Value
  196,                                    !- Rendering Green Value
  120;                                    !- Rendering Blue Value

OS:SpaceType,
  {8fc377aa-83f9-4fcd-9f8c-1b32404ba7e3}, !- Handle
  SecondarySchool ComputerRoom,           !- Name
  ,                                       !- Default Construction Set Name
  ,                                       !- Default Schedule Set Name
  {006297fa-2935-434a-ac6b-62f84ce1e3a6}, !- Group Rendering Name
  ,                                       !- Design Specification Outdoor Air Object Name
  ,                                       !- Standards Template
  SecondarySchool,                        !- Standards Building Type
  ComputerRoom;                           !- Standards Space Type

OS:Rendering:Color,
  {006297fa-2935-434a-ac6b-62f84ce1e3a6}, !- Handle
  SecondarySchool ComputerRoom,           !- Name
  120,                                    !- Rendering Red Value
  230,                                    !- Rendering Green Value
  199;                                    !- Rendering Blue Value

OS:SpaceType,
  {01ed99d1-8491-438e-8bb5-167cb2ad41ea}, !- Handle
  SecondarySchool Auditorium,             !- Name
  ,                                       !- Default Construction Set Name
  ,                                       !- Default Schedule Set Name
  {f1e25f69-f70a-45c2-b556-56aa3f6c9a56}, !- Group Rendering Name
  ,                                       !- Design Specification Outdoor Air Object Name
  ,                                       !- Standards Template
  SecondarySchool,                        !- Standards Building Type
  Auditorium;                             !- Standards Space Type

OS:Rendering:Color,
  {f1e25f69-f70a-45c2-b556-56aa3f6c9a56}, !- Handle
  SecondarySchool Auditorium,             !- Name
  230,                                    !- Rendering Red Value
  196,                                    !- Rendering Green Value
  120;                                    !- Rendering Blue Value

OS:SpaceType,
  {42e9f897-00c1-446e-8eb3-cf20dba4ebf6}, !- Handle
  SecondarySchool Office,                 !- Name
  ,                                       !- Default Construction Set Name
  ,                                       !- Default Schedule Set Name
  {38c4c92e-7881-4746-a03f-80570c87eb02}, !- Group Rendering Name
  ,                                       !- Design Specification Outdoor Air Object Name
  ,                                       !- Standards Template
  SecondarySchool,                        !- Standards Building Type
  Office;                                 !- Standards Space Type

OS:Rendering:Color,
  {38c4c92e-7881-4746-a03f-80570c87eb02}, !- Handle
  SecondarySchool Office,                 !- Name
  120,                                    !- Rendering Red Value
  230,                                    !- Rendering Green Value
  199;                                    !- Rendering Blue Value

OS:SpaceType,
  {564dc148-f9a5-45ed-8b75-a6033a9d4643}, !- Handle
  SecondarySchool Gym,                    !- Name
  ,                                       !- Default Construction Set Name
  ,                                       !- Default Schedule Set Name
  {621b6c9c-5e6b-4a59-b9ce-2869c635f9f1}, !- Group Rendering Name
  ,                                       !- Design Specification Outdoor Air Object Name
  ,                                       !- Standards Template
  SecondarySchool,                        !- Standards Building Type
  Gym;                                    !- Standards Space Type

OS:Rendering:Color,
  {621b6c9c-5e6b-4a59-b9ce-2869c635f9f1}, !- Handle
  SecondarySchool Gym,                    !- Name
  154,                                    !- Rendering Red Value
  230,                                    !- Rendering Green Value
  120;                                    !- Rendering Blue Value

OS:SpaceType,
  {3c9298ea-56d3-49f7-b5c5-3adc804a7427}, !- Handle
  SecondarySchool Corridor,               !- Name
  ,                                       !- Default Construction Set Name
  ,                                       !- Default Schedule Set Name
  {ff6799df-35d2-435a-adae-91b37e5ddcb8}, !- Group Rendering Name
  ,                                       !- Design Specification Outdoor Air Object Name
  ,                                       !- Standards Template
  SecondarySchool,                        !- Standards Building Type
  Corridor;                               !- Standards Space Type

OS:Rendering:Color,
  {ff6799df-35d2-435a-adae-91b37e5ddcb8}, !- Handle
  SecondarySchool Corridor,               !- Name
  169,                                    !- Rendering Red Value
  31,                                     !- Rendering Green Value
  31;                                     !- Rendering Blue Value

OS:SpaceType,
  {77430982-1aac-4d98-85d0-04a91cc58a91}, !- Handle
  SecondarySchool Classroom,              !- Name
  ,                                       !- Default Construction Set Name
  ,                                       !- Default Schedule Set Name
  {8e24fd7f-7e96-4d29-a235-991395bbdf24}, !- Group Rendering Name
  ,                                       !- Design Specification Outdoor Air Object Name
  ,                                       !- Standards Template
  SecondarySchool,                        !- Standards Building Type
  Classroom;                              !- Standards Space Type

OS:Rendering:Color,
  {8e24fd7f-7e96-4d29-a235-991395bbdf24}, !- Handle
  SecondarySchool Classroom,              !- Name
  120,                                    !- Rendering Red Value
  230,                                    !- Rendering Green Value
  199;                                    !- Rendering Blue Value

OS:Site,
  {01868289-3407-42a1-a10f-20fd489f78b8}, !- Handle
  Site 1,                                 !- Name
  ,                                       !- Latitude {deg}
  ,                                       !- Longitude {deg}
  ,                                       !- Time Zone {hr}
  ,                                       !- Elevation {m}
  ;                                       !- Terrain

OS:BuildingStory,
  {d8df1608-09c3-43ad-b42e-e75c46a56389}, !- Handle
  Story Ground,                           !- Name
  0,                                      !- Nominal Z Coordinate {m}
  3.9624,                                 !- Nominal Floor to Floor Height {m}
  ,                                       !- Default Construction Set Name
  ,                                       !- Default Schedule Set Name
  ;                                       !- Group Rendering Name

OS:Space,
  {b11698fb-3332-47da-8c63-26ec4eb864ae}, !- Handle
  SecondarySchool Classroom A end_a - Story Ground, !- Name
  {77430982-1aac-4d98-85d0-04a91cc58a91}, !- Space Type Name
  ,                                       !- Default Construction Set Name
  ,                                       !- Default Schedule Set Name
  -0,                                     !- Direction of Relative North {deg}
  -82.6256550198952,                      !- X Origin {m}
  -17.0032615711412,                      !- Y Origin {m}
  0,                                      !- Z Origin {m}
  {d8df1608-09c3-43ad-b42e-e75c46a56389}, !- Building Story Name
  {28f43ca2-2c7a-4546-897e-dc0648b89717}; !- Thermal Zone Name

OS:Surface,
  {e71bc8cc-5ce0-4fd0-8040-7b8eb93bf10c}, !- Handle
  Surface 1,                              !- Name
  Floor,                                  !- Surface Type
  ,                                       !- Construction Name
  {b11698fb-3332-47da-8c63-26ec4eb864ae}, !- Space Name
  Ground,                                 !- Outside Boundary Condition
  ,                                       !- Outside Boundary Condition Object
  NoSun,                                  !- Sun Exposure
  NoWind,                                 !- Wind Exposure
  ,                                       !- View Factor to Ground
  ,                                       !- Number of Vertices
  4.2632564145606e-14, -3.5527136788005e-14, 0, !- X,Y,Z Vertex 1 {m}
  4.2632564145606e-14, 9.97240471318038, 0, !- X,Y,Z Vertex 2 {m}
  4.57200000000005, 9.97240471318038, 0,  !- X,Y,Z Vertex 3 {m}
  4.57200000000005, -3.5527136788005e-14, 0; !- X,Y,Z Vertex 4 {m}

OS:Surface,
  {0af41de0-9a8a-4efc-9ee8-2def5fcd3d21}, !- Handle
  Surface 2,                              !- Name
  Wall,                                   !- Surface Type
  ,                                       !- Construction Name
  {b11698fb-3332-47da-8c63-26ec4eb864ae}, !- Space Name
  Outdoors,                               !- Outside Boundary Condition
  ,                                       !- Outside Boundary Condition Object
  SunExposed,                             !- Sun Exposure
  WindExposed,                            !- Wind Exposure
  ,                                       !- View Factor to Ground
  ,                                       !- Number of Vertices
  4.2632564145606e-14, 9.97240471318038, 3.9624, !- X,Y,Z Vertex 1 {m}
  4.2632564145606e-14, 9.97240471318038, 0, !- X,Y,Z Vertex 2 {m}
  4.2632564145606e-14, -3.5527136788005e-14, 0, !- X,Y,Z Vertex 3 {m}
  4.2632564145606e-14, -3.5527136788005e-14, 3.9624; !- X,Y,Z Vertex 4 {m}

OS:Surface,
  {1d58d95c-50aa-4876-8544-c6e1df5eeed1}, !- Handle
  Surface 3,                              !- Name
  Wall,                                   !- Surface Type
  ,                                       !- Construction Name
  {b11698fb-3332-47da-8c63-26ec4eb864ae}, !- Space Name
  Surface,                                !- Outside Boundary Condition
  {4f9d1e92-9e5e-4443-adcc-8c7fd0edc1ce}, !- Outside Boundary Condition Object
  NoSun,                                  !- Sun Exposure
  NoWind,                                 !- Wind Exposure
  ,                                       !- View Factor to Ground
  ,                                       !- Number of Vertices
  4.57200000000005, 9.97240471318038, 3.9624, !- X,Y,Z Vertex 1 {m}
  4.57200000000005, 9.97240471318038, 0,  !- X,Y,Z Vertex 2 {m}
  4.2632564145606e-14, 9.97240471318038, 0, !- X,Y,Z Vertex 3 {m}
  4.2632564145606e-14, 9.97240471318038, 3.9624; !- X,Y,Z Vertex 4 {m}

OS:Surface,
  {cdb28f86-c3f7-45d0-8344-205353bc8202}, !- Handle
  Surface 4,                              !- Name
  Wall,                                   !- Surface Type
  ,                                       !- Construction Name
  {b11698fb-3332-47da-8c63-26ec4eb864ae}, !- Space Name
  Surface,                                !- Outside Boundary Condition
  {0888715a-d263-4d1c-aa9c-29754673906b}, !- Outside Boundary Condition Object
  NoSun,                                  !- Sun Exposure
  NoWind,                                 !- Wind Exposure
  ,                                       !- View Factor to Ground
  ,                                       !- Number of Vertices
  4.57200000000005, -3.5527136788005e-14, 3.9624, !- X,Y,Z Vertex 1 {m}
  4.57200000000005, -3.5527136788005e-14, 0, !- X,Y,Z Vertex 2 {m}
  4.57200000000005, 9.97240471318038, 0,  !- X,Y,Z Vertex 3 {m}
  4.57200000000005, 9.97240471318038, 3.9624; !- X,Y,Z Vertex 4 {m}

OS:Surface,
  {b8891f84-6284-4d50-8497-bd57240031b7}, !- Handle
  Surface 5,                              !- Name
  Wall,                                   !- Surface Type
  ,                                       !- Construction Name
  {b11698fb-3332-47da-8c63-26ec4eb864ae}, !- Space Name
  Outdoors,                               !- Outside Boundary Condition
  ,                                       !- Outside Boundary Condition Object
  SunExposed,                             !- Sun Exposure
  WindExposed,                            !- Wind Exposure
  ,                                       !- View Factor to Ground
  ,                                       !- Number of Vertices
  4.2632564145606e-14, -3.5527136788005e-14, 3.9624, !- X,Y,Z Vertex 1 {m}
  4.2632564145606e-14, -3.5527136788005e-14, 0, !- X,Y,Z Vertex 2 {m}
  4.57200000000005, -3.5527136788005e-14, 0, !- X,Y,Z Vertex 3 {m}
  4.57200000000005, -3.5527136788005e-14, 3.9624; !- X,Y,Z Vertex 4 {m}

OS:Surface,
  {dde7ef2f-4bf0-4fd5-af48-e0697dfe8cec}, !- Handle
  Surface 6,                              !- Name
  RoofCeiling,                            !- Surface Type
  ,                                       !- Construction Name
  {b11698fb-3332-47da-8c63-26ec4eb864ae}, !- Space Name
  Surface,                                !- Outside Boundary Condition
  {ac1e0715-f56c-4093-b648-840609b170d3}, !- Outside Boundary Condition Object
  NoSun,                                  !- Sun Exposure
  NoWind,                                 !- Wind Exposure
  ,                                       !- View Factor to Ground
  ,                                       !- Number of Vertices
  4.57200000000005, -3.5527136788005e-14, 3.9624, !- X,Y,Z Vertex 1 {m}
  4.57200000000005, 9.97240471318038, 3.9624, !- X,Y,Z Vertex 2 {m}
  4.2632564145606e-14, 9.97240471318038, 3.9624, !- X,Y,Z Vertex 3 {m}
  4.2632564145606e-14, -3.5527136788005e-14, 3.9624; !- X,Y,Z Vertex 4 {m}

OS:ThermalZone,
  {28f43ca2-2c7a-4546-897e-dc0648b89717}, !- Handle
  Zone SecondarySchool Classroom A end_a - Story Ground, !- Name
  1,                                      !- Multiplier
  ,                                       !- Ceiling Height {m}
  ,                                       !- Volume {m3}
  ,                                       !- Floor Area {m2}
  ,                                       !- Zone Inside Convection Algorithm
  ,                                       !- Zone Outside Convection Algorithm
  ,                                       !- Zone Conditioning Equipment List Name
  {667956c4-824f-482f-9524-13972b5b217a}, !- Zone Air Inlet Port List
  {b809e333-21fe-46cd-b8b3-64f991ce0108}, !- Zone Air Exhaust Port List
  {d4465405-d29d-481b-991d-33d690c4ab02}, !- Zone Air Node Name
  {b5386a53-daac-43b2-a24d-9311c897bdfa}, !- Zone Return Air Port List
  ,                                       !- Primary Daylighting Control Name
  ,                                       !- Fraction of Zone Controlled by Primary Daylighting Control
  ,                                       !- Secondary Daylighting Control Name
  ,                                       !- Fraction of Zone Controlled by Secondary Daylighting Control
  ,                                       !- Illuminance Map Name
  ,                                       !- Group Rendering Name
  ,                                       !- Thermostat Name
  No;                                     !- Use Ideal Air Loads

OS:Node,
  {996cd146-563a-4f06-86f6-d3c01a488295}, !- Handle
  Node 1,                                 !- Name
  {d4465405-d29d-481b-991d-33d690c4ab02}, !- Inlet Port
  ;                                       !- Outlet Port

OS:Connection,
  {d4465405-d29d-481b-991d-33d690c4ab02}, !- Handle
  {092068b1-adcc-4fba-a0ae-10db6f9b028d}, !- Name
  {28f43ca2-2c7a-4546-897e-dc0648b89717}, !- Source Object
  11,                                     !- Outlet Port
  {996cd146-563a-4f06-86f6-d3c01a488295}, !- Target Object
  2;                                      !- Inlet Port

OS:PortList,
  {667956c4-824f-482f-9524-13972b5b217a}, !- Handle
  {2051993c-0398-4900-b19e-3cda9d31f6f0}, !- Name
  {28f43ca2-2c7a-4546-897e-dc0648b89717}; !- HVAC Component

OS:PortList,
  {b809e333-21fe-46cd-b8b3-64f991ce0108}, !- Handle
  {55f9546e-7677-460b-ad1b-4e7752330727}, !- Name
  {28f43ca2-2c7a-4546-897e-dc0648b89717}; !- HVAC Component

OS:PortList,
  {b5386a53-daac-43b2-a24d-9311c897bdfa}, !- Handle
  {4dfe03f9-41f5-49e3-b61c-239e05c3aa03}, !- Name
  {28f43ca2-2c7a-4546-897e-dc0648b89717}; !- HVAC Component

OS:Sizing:Zone,
  {fff13e53-7503-4792-b44b-9431b5a0ff79}, !- Handle
  {28f43ca2-2c7a-4546-897e-dc0648b89717}, !- Zone or ZoneList Name
  SupplyAirTemperature,                   !- Zone Cooling Design Supply Air Temperature Input Method
  14,                                     !- Zone Cooling Design Supply Air Temperature {C}
  11.11,                                  !- Zone Cooling Design Supply Air Temperature Difference {deltaC}
  SupplyAirTemperature,                   !- Zone Heating Design Supply Air Temperature Input Method
  40,                                     !- Zone Heating Design Supply Air Temperature {C}
  11.11,                                  !- Zone Heating Design Supply Air Temperature Difference {deltaC}
  0.0085,                                 !- Zone Cooling Design Supply Air Humidity Ratio {kg-H2O/kg-air}
  0.008,                                  !- Zone Heating Design Supply Air Humidity Ratio {kg-H2O/kg-air}
  ,                                       !- Zone Heating Sizing Factor
  ,                                       !- Zone Cooling Sizing Factor
  DesignDay,                              !- Cooling Design Air Flow Method
  ,                                       !- Cooling Design Air Flow Rate {m3/s}
  ,                                       !- Cooling Minimum Air Flow per Zone Floor Area {m3/s-m2}
  ,                                       !- Cooling Minimum Air Flow {m3/s}
  ,                                       !- Cooling Minimum Air Flow Fraction
  DesignDay,                              !- Heating Design Air Flow Method
  ,                                       !- Heating Design Air Flow Rate {m3/s}
  ,                                       !- Heating Maximum Air Flow per Zone Floor Area {m3/s-m2}
  ,                                       !- Heating Maximum Air Flow {m3/s}
  ,                                       !- Heating Maximum Air Flow Fraction
  No,                                     !- Account for Dedicated Outdoor Air System
  NeutralSupplyAir,                       !- Dedicated Outdoor Air System Control Strategy
  autosize,                               !- Dedicated Outdoor Air Low Setpoint Temperature for Design {C}
  autosize;                               !- Dedicated Outdoor Air High Setpoint Temperature for Design {C}

OS:ZoneHVAC:EquipmentList,
  {1c66eb7c-e7fd-4d2e-9130-0d0cd6186798}, !- Handle
  Zone HVAC Equipment List 1,             !- Name
  {28f43ca2-2c7a-4546-897e-dc0648b89717}; !- Thermal Zone

OS:Space,
  {67d5f874-07f2-4ff6-99d3-1615e700471e}, !- Handle
  SecondarySchool Corridor B end_a - Story Ground, !- Name
  {3c9298ea-56d3-49f7-b5c5-3adc804a7427}, !- Space Type Name
  ,                                       !- Default Construction Set Name
  ,                                       !- Default Schedule Set Name
  -0,                                     !- Direction of Relative North {deg}
  -82.6256550198952,                      !- X Origin {m}
  -7.03085685796078,                      !- Y Origin {m}
  0,                                      !- Z Origin {m}
  {d8df1608-09c3-43ad-b42e-e75c46a56389}, !- Building Story Name
  {4048e9a0-a2a7-499f-828e-747719d5f84a}; !- Thermal Zone Name

OS:Surface,
  {d9947923-419a-4459-807e-392112017c34}, !- Handle
  Surface 7,                              !- Name
  Floor,                                  !- Surface Type
  ,                                       !- Construction Name
  {67d5f874-07f2-4ff6-99d3-1615e700471e}, !- Space Name
  Ground,                                 !- Outside Boundary Condition
  ,                                       !- Outside Boundary Condition Object
  NoSun,                                  !- Sun Exposure
  NoWind,                                 !- Wind Exposure
  ,                                       !- View Factor to Ground
  ,                                       !- Number of Vertices
  4.2632564145606e-14, 1.77635683940025e-15, 0, !- X,Y,Z Vertex 1 {m}
  4.2632564145606e-14, 14.0617137159216, 0, !- X,Y,Z Vertex 2 {m}
  4.57200000000005, 14.0617137159216, 0,  !- X,Y,Z Vertex 3 {m}
  4.57200000000005, 1.77635683940025e-15, 0; !- X,Y,Z Vertex 4 {m}

OS:Surface,
  {5bf2956a-259a-4402-8723-bcee9d7088a5}, !- Handle
  Surface 8,                              !- Name
  Wall,                                   !- Surface Type
  ,                                       !- Construction Name
  {67d5f874-07f2-4ff6-99d3-1615e700471e}, !- Space Name
  Outdoors,                               !- Outside Boundary Condition
  ,                                       !- Outside Boundary Condition Object
  SunExposed,                             !- Sun Exposure
  WindExposed,                            !- Wind Exposure
  ,                                       !- View Factor to Ground
  ,                                       !- Number of Vertices
  4.2632564145606e-14, 14.0617137159216, 3.9624, !- X,Y,Z Vertex 1 {m}
  4.2632564145606e-14, 14.0617137159216, 0, !- X,Y,Z Vertex 2 {m}
  4.2632564145606e-14, 1.77635683940025e-15, 0, !- X,Y,Z Vertex 3 {m}
  4.2632564145606e-14, 1.77635683940025e-15, 3.9624; !- X,Y,Z Vertex 4 {m}

OS:Surface,
  {8d7f16c7-1507-4cce-aff5-2fc59d444d22}, !- Handle
  Surface 9,                              !- Name
  Wall,                                   !- Surface Type
  ,                                       !- Construction Name
  {67d5f874-07f2-4ff6-99d3-1615e700471e}, !- Space Name
  Surface,                                !- Outside Boundary Condition
  {c6faf38c-3788-4c62-8fc2-b8e0ba0112f1}, !- Outside Boundary Condition Object
  NoSun,                                  !- Sun Exposure
  NoWind,                                 !- Wind Exposure
  ,                                       !- View Factor to Ground
  ,                                       !- Number of Vertices
  4.57200000000005, 14.0617137159216, 3.9624, !- X,Y,Z Vertex 1 {m}
  4.57200000000005, 14.0617137159216, 0,  !- X,Y,Z Vertex 2 {m}
  4.2632564145606e-14, 14.0617137159216, 0, !- X,Y,Z Vertex 3 {m}
  4.2632564145606e-14, 14.0617137159216, 3.9624; !- X,Y,Z Vertex 4 {m}

OS:Surface,
  {4652abf9-f16d-46b0-b500-bf17000ed384}, !- Handle
  Surface 10,                             !- Name
  Wall,                                   !- Surface Type
  ,                                       !- Construction Name
  {67d5f874-07f2-4ff6-99d3-1615e700471e}, !- Space Name
  Surface,                                !- Outside Boundary Condition
  {512d8ebe-d929-4e29-973c-1b62f0910b1b}, !- Outside Boundary Condition Object
  NoSun,                                  !- Sun Exposure
  NoWind,                                 !- Wind Exposure
  ,                                       !- View Factor to Ground
  ,                                       !- Number of Vertices
  4.57200000000005, 1.77635683940025e-15, 3.9624, !- X,Y,Z Vertex 1 {m}
  4.57200000000005, 1.77635683940025e-15, 0, !- X,Y,Z Vertex 2 {m}
  4.57200000000005, 14.0617137159216, 0,  !- X,Y,Z Vertex 3 {m}
  4.57200000000005, 14.0617137159216, 3.9624; !- X,Y,Z Vertex 4 {m}

OS:Surface,
  {4f9d1e92-9e5e-4443-adcc-8c7fd0edc1ce}, !- Handle
  Surface 11,                             !- Name
  Wall,                                   !- Surface Type
  ,                                       !- Construction Name
  {67d5f874-07f2-4ff6-99d3-1615e700471e}, !- Space Name
  Surface,                                !- Outside Boundary Condition
  {1d58d95c-50aa-4876-8544-c6e1df5eeed1}, !- Outside Boundary Condition Object
  NoSun,                                  !- Sun Exposure
  NoWind,                                 !- Wind Exposure
  ,                                       !- View Factor to Ground
  ,                                       !- Number of Vertices
  4.2632564145606e-14, 1.77635683940025e-15, 3.9624, !- X,Y,Z Vertex 1 {m}
  4.2632564145606e-14, 1.77635683940025e-15, 0, !- X,Y,Z Vertex 2 {m}
  4.57200000000005, 1.77635683940025e-15, 0, !- X,Y,Z Vertex 3 {m}
  4.57200000000005, 1.77635683940025e-15, 3.9624; !- X,Y,Z Vertex 4 {m}

OS:Surface,