
OS:Version,
  {f4a7651e-a533-47b2-a42d-0f16679f8876}, !- Handle
  3.0.0;                                  !- Version Identifier

OS:Building,
  {c06e70a8-7011-4e7c-8def-a43ee158b457}, !- Handle
  90.1-2004|SecondarySchool,              !- Name
  ,                                       !- Building Sector Type
  ,                                       !- North Axis {deg}
  ,                                       !- Nominal Floor to Floor Height {m}
  ,                                       !- Space Type Name
  ,                                       !- Default Construction Set Name
  ;                                       !- Default Schedule Set Name

OS:SpaceType,
  {d612339c-073d-4f05-b7cd-7488fb5a1dff}, !- Handle
  SecondarySchool Kitchen,                !- Name
  ,                                       !- Default Construction Set Name
  ,                                       !- Default Schedule Set Name
  {4de2a624-df34-4c8f-8ec5-e7e1decfc1a2}, !- Group Rendering Name
  ,                                       !- Design Specification Outdoor Air Object Name
  ,                                       !- Standards Template
  SecondarySchool,                        !- Standards Building Type
  Kitchen;                                !- Standards Space Type

OS:Rendering:Color,
  {4de2a624-df34-4c8f-8ec5-e7e1decfc1a2}, !- Handle
  SecondarySchool Kitchen,                !- Name
  78,                                     !- Rendering Red Value
  222,                                    !- Rendering Green Value
  133;                                    !- Rendering Blue Value

OS:SpaceType,
  {5f4d3e78-9b23-4d5a-91b9-6c6c2b7fd104}, !- Handle
  SecondarySchool Lobby,                  !- Name
  ,                                       !- Default Construction Set Name
  ,                                       !- Default Schedule Set Name
  {7089a7fc-30db-4ecb-93a5-d79f3f40a8b5}, !- Group Rendering Name
  ,                                       !- Design Specification Outdoor Air Object Name
  ,                                       !- Standards Template
  SecondarySchool,                        !- Standards Building Type
  Lobby;                                  !- Standards Space Type

OS:Rendering:Color,
  {7089a7fc-30db-4ecb-93a5-d79f3f40a8b5}, !- Handle
  SecondarySchool Lobby,                  !- Name
  230,                                    !- Rendering Red Value
  157,                                    !- Rendering Green Value
  120;                                    !- Rendering Blue Value

OS:SpaceType,
  {3ac462d4-126a-48c7-bbc6-6b97539d78d4}, !- Handle
  SecondarySchool Restroom,               !- Name
  ,                                       !- Default Construction Set Name
  ,                                       !- Default Schedule Set Name
  {e77f7183-99b4-45c8-97c3-ca88ffc2a799}, !- Group Rendering Name
  ,                                       !- Design Specification Outdoor Air Object Name
  ,                                       !- Standards Template
  SecondarySchool,                        !- Standards Building Type
  Restroom;                               !- Standards Space Type

OS:Rendering:Color,
  {e77f7183-99b4-45c8-97c3-ca88ffc2a799}, !- Handle
  SecondarySchool Restroom,               !- Name
  169,                                    !- Rendering Red Value
  169,                                    !- Rendering Green Value
  31;                                     !- Rendering Blue Value

OS:SpaceType,
  {0d7a629b-265d-47ec-8cb3-595c3ff17328}, !- Handle
  SecondarySchool Cafeteria,              !- Name
  ,                                       !- Default Construction Set Name
  ,                                       !- Default Schedule Set Name
  {ef41f08f-f709-48c7-841a-b51b0f49e6be}, !- Group Rendering Name
  ,                                       !- Design Specification Outdoor Air Object Name
  ,                                       !- Standards Template
  SecondarySchool,                        !- Standards Building Type
  Cafeteria;                              !- Standards Space Type

OS:Rendering:Color,
  {ef41f08f-f709-48c7-841a-b51b0f49e6be}, !- Handle
  SecondarySchool Cafeteria,              !- Name
  31,                                     !- Rendering Red Value
  169,                                    !- Rendering Green Value
  34;                                     !- Rendering Blue Value

OS:SpaceType,
  {f99d5c94-8846-41bc-bb3e-007732b9eab3}, !- Handle
  SecondarySchool Mechanical,             !- Name
  ,                                       !- Default Construction Set Name
  ,                                       !- Default Schedule Set Name
  {d01c39fc-ad34-4b71-aebb-a003c087bbc2}, !- Group Rendering Name
  ,                                       !- Design Specification Outdoor Air Object Name
  ,                                       !- Standards Template
  SecondarySchool,                        !- Standards Building Type
  Mechanical;                             !- Standards Space Type

OS:Rendering:Color,
  {d01c39fc-ad34-4b71-aebb-a003c087bbc2}, !- Handle
  SecondarySchool Mechanical,             !- Name
  41,                                     !- Rendering Red Value
  31,                                     !- Rendering Green Value
  169;                                    !- Rendering Blue Value

OS:SpaceType,
  {018b9a14-5533-447d-9f96-5ddccae048dd}, !- Handle
  SecondarySchool Library,                !- Name
  ,                                       !- Default Construction Set Name
  ,                                       !- Default Schedule Set Name
  {9707b36c-4726-4e7c-b43e-240885602b95}, !- Group Rendering Name
  ,                                       !- Design Specification Outdoor Air Object Name
  ,                                       !- Standards Template
  SecondarySchool,                        !- Standards Building Type
  Library;                                !- Standards Space Type

OS:Rendering:Color,
  {9707b36c-4726-4e7c-b43e-240885602b95}, !- Handle
  SecondarySchool Library,                !- Name
  230,                                    !- Rendering Red Value
  196,                                    !- Rendering Green Value
  120;                                    !- Rendering Blue Value

OS:SpaceType,
  {3f2bf36b-99bb-43f6-a85e-e361b3a8837d}, !- Handle
  SecondarySchool ComputerRoom,           !- Name
  ,                                       !- Default Construction Set Name
  ,                                       !- Default Schedule Set Name
  {cb51b8cd-070a-4dab-aa07-65ee4a5fd929}, !- Group Rendering Name
  ,                                       !- Design Specification Outdoor Air Object Name
  ,                                       !- Standards Template
  SecondarySchool,                        !- Standards Building Type
  ComputerRoom;                           !- Standards Space Type

OS:Rendering:Color,
  {cb51b8cd-070a-4dab-aa07-65ee4a5fd929}, !- Handle
  SecondarySchool ComputerRoom,           !- Name
  120,                                    !- Rendering Red Value
  230,                                    !- Rendering Green Value
  199;                                    !- Rendering Blue Value

OS:SpaceType,
  {9efce92a-a8af-4b8b-9b4e-f8b5cbf307bc}, !- Handle
  SecondarySchool Auditorium,             !- Name
  ,                                       !- Default Construction Set Name
  ,                                       !- Default Schedule Set Name
  {a8bcdb59-042b-40d9-bdac-2267d8ac1661}, !- Group Rendering Name
  ,                                       !- Design Specification Outdoor Air Object Name
  ,                                       !- Standards Template
  SecondarySchool,                        !- Standards Building Type
  Auditorium;                             !- Standards Space Type

OS:Rendering:Color,
  {a8bcdb59-042b-40d9-bdac-2267d8ac1661}, !- Handle
  SecondarySchool Auditorium,             !- Name
  230,                                    !- Rendering Red Value
  196,                                    !- Rendering Green Value
  120;                                    !- Rendering Blue Value

OS:SpaceType,
  {72e144d2-a5b9-43f2-b0fd-d4e7d11fe52f}, !- Handle
  SecondarySchool Office,                 !- Name
  ,                                       !- Default Construction Set Name
  ,                                       !- Default Schedule Set Name
  {3968dc1e-1202-404a-81e5-0df219f4dfaf}, !- Group Rendering Name
  ,                                       !- Design Specification Outdoor Air Object Name
  ,                                       !- Standards Template
  SecondarySchool,                        !- Standards Building Type
  Office;                                 !- Standards Space Type

OS:Rendering:Color,
  {3968dc1e-1202-404a-81e5-0df219f4dfaf}, !- Handle
  SecondarySchool Office,                 !- Name
  120,                                    !- Rendering Red Value
  230,                                    !- Rendering Green Value
  199;                                    !- Rendering Blue Value

OS:SpaceType,
  {ecdd56d0-c759-4236-88c5-eace88a5675e}, !- Handle
  SecondarySchool Gym,                    !- Name
  ,                                       !- Default Construction Set Name
  ,                                       !- Default Schedule Set Name
  {2a2898bf-1285-45dc-80b8-dc02858d9705}, !- Group Rendering Name
  ,                                       !- Design Specification Outdoor Air Object Name
  ,                                       !- Standards Template
  SecondarySchool,                        !- Standards Building Type
  Gym;                                    !- Standards Space Type

OS:Rendering:Color,
  {2a2898bf-1285-45dc-80b8-dc02858d9705}, !- Handle
  SecondarySchool Gym,                    !- Name
  154,                                    !- Rendering Red Value
  230,                                    !- Rendering Green Value
  120;                                    !- Rendering Blue Value

OS:SpaceType,
  {59b54229-8fab-44d7-be54-7e9041d5cf99}, !- Handle
  SecondarySchool Corridor,               !- Name
  ,                                       !- Default Construction Set Name
  ,                                       !- Default Schedule Set Name
  {31522092-c5d2-4d9c-9b21-f73842b59802}, !- Group Rendering Name
  ,                                       !- Design Specification Outdoor Air Object Name
  ,                                       !- Standards Template
  SecondarySchool,                        !- Standards Building Type
  Corridor;                               !- Standards Space Type

OS:Rendering:Color,
  {31522092-c5d2-4d9c-9b21-f73842b59802}, !- Handle
  SecondarySchool Corridor,               !- Name
  169,                                    !- Rendering Red Value
  31,                                     !- Rendering Green Value
  31;                                     !- Rendering Blue Value

OS:SpaceType,
  {8a5ef0e9-2cc5-4ed2-bf9a-d3def090201a}, !- Handle
  SecondarySchool Classroom,              !- Name
  ,                                       !- Default Construction Set Name
  ,                                       !- Default Schedule Set Name
  {e9e7c4d3-fc50-4e22-bad4-e6d2773da9c0}, !- Group Rendering Name
  ,                                       !- Design Specification Outdoor Air Object Name
  ,                                       !- Standards Template
  SecondarySchool,                        !- Standards Building Type
  Classroom;                              !- Standards Space Type

OS:Rendering:Color,
  {e9e7c4d3-fc50-4e22-bad4-e6d2773da9c0}, !- Handle
  SecondarySchool Classroom,              !- Name
  120,                                    !- Rendering Red Value
  230,                                    !- Rendering Green Value
  199;                                    !- Rendering Blue Value

OS:Site,
  {ad5e2b4a-52d6-4c7a-b232-77db8a32ce14}, !- Handle
  Site 1,                                 !- Name
  ,                                       !- Latitude {deg}
  ,                                       !- Longitude {deg}
  ,                                       !- Time Zone {hr}
  ,                                       !- Elevation {m}
  ;                                       !- Terrain

OS:BuildingStory,
  {dc1ae21d-84b0-4cbd-9d1d-46087dd11ddf}, !- Handle
  Story Ground,                           !- Name
  0,                                      !- Nominal Z Coordinate {m}
  3.9624,                                 !- Nominal Floor to Floor Height {m}
  ,                                       !- Default Construction Set Name
  ,                                       !- Default Schedule Set Name
  ;                                       !- Group Rendering Name

OS:Space,
  {7f5a1a11-73de-433c-b68c-1bbbb5aafd03}, !- Handle
  SecondarySchool Classroom A end_a - Story Ground, !- Name
  {8a5ef0e9-2cc5-4ed2-bf9a-d3def090201a}, !- Space Type Name
  ,                                       !- Default Construction Set Name
  ,                                       !- Default Schedule Set Name
  -0,                                     !- Direction of Relative North {deg}
  -82.6256550198952,                      !- X Origin {m}
  -17.0032615711412,                      !- Y Origin {m}
  0,                                      !- Z Origin {m}
  {dc1ae21d-84b0-4cbd-9d1d-46087dd11ddf}, !- Building Story Name
  {c406b4f4-3ee1-45b5-84ed-43395110e695}; !- Thermal Zone Name

OS:Surface,
  {d6cc621b-bfa3-46f2-a9ea-302cebab6cbb}, !- Handle
  Surface 1,                              !- Name
  Floor,                                  !- Surface Type
  ,                                       !- Construction Name
  {7f5a1a11-73de-433c-b68c-1bbbb5aafd03}, !- Space Name
  Ground,                                 !- Outside Boundary Condition
  ,                                       !- Outside Boundary Condition Object
  NoSun,                                  !- Sun Exposure
  NoWind,                                 !- Wind Exposure
  ,                                       !- View Factor to Ground
  ,                                       !- Number of Vertices
  4.2632564145606e-14, -3.5527136788005e-14, 0, !- X,Y,Z Vertex 1 {m}
  4.2632564145606e-14, 9.97240471318038, 0, !- X,Y,Z Vertex 2 {m}
  4.57200000000005, 9.97240471318038, 0,  !- X,Y,Z Vertex 3 {m}
  4.57200000000005, -3.5527136788005e-14, 0; !- X,Y,Z Vertex 4 {m}

OS:Surface,
  {3d4d44b2-a7cc-48e6-98e9-6d3ec23f655d}, !- Handle
  Surface 2,                              !- Name
  Wall,                                   !- Surface Type
  ,                                       !- Construction Name
  {7f5a1a11-73de-433c-b68c-1bbbb5aafd03}, !- Space Name
  Outdoors,                               !- Outside Boundary Condition
  ,                                       !- Outside Boundary Condition Object
  SunExposed,                             !- Sun Exposure
  WindExposed,                            !- Wind Exposure
  ,                                       !- View Factor to Ground
  ,                                       !- Number of Vertices
  4.2632564145606e-14, 9.97240471318038, 3.9624, !- X,Y,Z Vertex 1 {m}
  4.2632564145606e-14, 9.97240471318038, 0, !- X,Y,Z Vertex 2 {m}
  4.2632564145606e-14, -3.5527136788005e-14, 0, !- X,Y,Z Vertex 3 {m}
  4.2632564145606e-14, -3.5527136788005e-14, 3.9624; !- X,Y,Z Vertex 4 {m}

OS:Surface,
  {a5e4eedb-9e10-4438-8812-fd73abcee0c5}, !- Handle
  Surface 3,                              !- Name
  Wall,                                   !- Surface Type
  ,                                       !- Construction Name
  {7f5a1a11-73de-433c-b68c-1bbbb5aafd03}, !- Space Name
  Surface,                                !- Outside Boundary Condition
  {752a0cbf-a6e7-46ab-be7a-0fcf7b8f1365}, !- Outside Boundary Condition Object
  NoSun,                                  !- Sun Exposure
  NoWind,                                 !- Wind Exposure
  ,                                       !- View Factor to Ground
  ,                                       !- Number of Vertices
  4.57200000000005, 9.97240471318038, 3.9624, !- X,Y,Z Vertex 1 {m}
  4.57200000000005, 9.97240471318038, 0,  !- X,Y,Z Vertex 2 {m}
  4.2632564145606e-14, 9.97240471318038, 0, !- X,Y,Z Vertex 3 {m}
  4.2632564145606e-14, 9.97240471318038, 3.9624; !- X,Y,Z Vertex 4 {m}

OS:Surface,
  {78b153a1-19fc-42b3-ae16-5c32284bfe07}, !- Handle
  Surface 4,                              !- Name
  Wall,                                   !- Surface Type
  ,                                       !- Construction Name
  {7f5a1a11-73de-433c-b68c-1bbbb5aafd03}, !- Space Name
  Surface,                                !- Outside Boundary Condition
  {d4720019-8e98-4cb1-a123-5ee7420b54f3}, !- Outside Boundary Condition Object
  NoSun,                                  !- Sun Exposure
  NoWind,                                 !- Wind Exposure
  ,                                       !- View Factor to Ground
  ,                                       !- Number of Vertices
  4.57200000000005, -3.5527136788005e-14, 3.9624, !- X,Y,Z Vertex 1 {m}
  4.57200000000005, -3.5527136788005e-14, 0, !- X,Y,Z Vertex 2 {m}
  4.57200000000005, 9.97240471318038, 0,  !- X,Y,Z Vertex 3 {m}
  4.57200000000005, 9.97240471318038, 3.9624; !- X,Y,Z Vertex 4 {m}

OS:Surface,
  {ab00e9a3-9906-4aad-9a81-6f24b0e0d83b}, !- Handle
  Surface 5,                              !- Name
  Wall,                                   !- Surface Type
  ,                                       !- Construction Name
  {7f5a1a11-73de-433c-b68c-1bbbb5aafd03}, !- Space Name
  Outdoors,                               !- Outside Boundary Condition
  ,                                       !- Outside Boundary Condition Object
  SunExposed,                             !- Sun Exposure
  WindExposed,                            !- Wind Exposure
  ,                                       !- View Factor to Ground
  ,                                       !- Number of Vertices
  4.2632564145606e-14, -3.5527136788005e-14, 3.9624, !- X,Y,Z Vertex 1 {m}
  4.2632564145606e-14, -3.5527136788005e-14, 0, !- X,Y,Z Vertex 2 {m}
  4.57200000000005, -3.5527136788005e-14, 0, !- X,Y,Z Vertex 3 {m}
  4.57200000000005, -3.5527136788005e-14, 3.9624; !- X,Y,Z Vertex 4 {m}

OS:Surface,
  {d64695ec-8410-40e1-a82e-ccafda32960e}, !- Handle
  Surface 6,                              !- Name
  RoofCeiling,                            !- Surface Type
  ,                                       !- Construction Name
  {7f5a1a11-73de-433c-b68c-1bbbb5aafd03}, !- Space Name
  Adiabatic,                              !- Outside Boundary Condition
  ,                                       !- Outside Boundary Condition Object
  NoSun,                                  !- Sun Exposure
  NoWind,                                 !- Wind Exposure
  ,                                       !- View Factor to Ground
  ,                                       !- Number of Vertices
  4.57200000000005, -3.5527136788005e-14, 3.9624, !- X,Y,Z Vertex 1 {m}
  4.57200000000005, 9.97240471318038, 3.9624, !- X,Y,Z Vertex 2 {m}
  4.2632564145606e-14, 9.97240471318038, 3.9624, !- X,Y,Z Vertex 3 {m}
  4.2632564145606e-14, -3.5527136788005e-14, 3.9624; !- X,Y,Z Vertex 4 {m}

OS:ThermalZone,
  {c406b4f4-3ee1-45b5-84ed-43395110e695}, !- Handle
  Zone SecondarySchool Classroom A end_a - Story Ground, !- Name
  1,                                      !- Multiplier
  ,                                       !- Ceiling Height {m}
  ,                                       !- Volume {m3}
  ,                                       !- Floor Area {m2}
  ,                                       !- Zone Inside Convection Algorithm
  ,                                       !- Zone Outside Convection Algorithm
  ,                                       !- Zone Conditioning Equipment List Name
  {70c062eb-c845-4c4a-8123-d0fd66c4717e}, !- Zone Air Inlet Port List
  {ae00bc63-3a62-4800-9729-e62e09444f13}, !- Zone Air Exhaust Port List
  {527fccda-af97-4744-ba3a-a2a9bf488710}, !- Zone Air Node Name
  {50195f3e-39ea-4856-bc0d-632f4f4db0a7}, !- Zone Return Air Port List
  ,                                       !- Primary Daylighting Control Name
  ,                                       !- Fraction of Zone Controlled by Primary Daylighting Control
  ,                                       !- Secondary Daylighting Control Name
  ,                                       !- Fraction of Zone Controlled by Secondary Daylighting Control
  ,                                       !- Illuminance Map Name
  ,                                       !- Group Rendering Name
  ,                                       !- Thermostat Name
  No;                                     !- Use Ideal Air Loads

OS:Node,
  {0656bd18-aec3-4ce6-b3a7-8bdb0d4f71f6}, !- Handle
  Node 1,                                 !- Name
  {527fccda-af97-4744-ba3a-a2a9bf488710}, !- Inlet Port
  ;                                       !- Outlet Port

OS:Connection,
  {527fccda-af97-4744-ba3a-a2a9bf488710}, !- Handle
  {027f53de-92cc-4705-9f0a-155ada5be674}, !- Name
  {c406b4f4-3ee1-45b5-84ed-43395110e695}, !- Source Object
  11,                                     !- Outlet Port
  {0656bd18-aec3-4ce6-b3a7-8bdb0d4f71f6}, !- Target Object
  2;                                      !- Inlet Port

OS:PortList,
  {70c062eb-c845-4c4a-8123-d0fd66c4717e}, !- Handle
  {0b55dd3e-c2bf-4044-8a9b-1360d8e20f32}, !- Name
  {c406b4f4-3ee1-45b5-84ed-43395110e695}; !- HVAC Component

OS:PortList,
  {ae00bc63-3a62-4800-9729-e62e09444f13}, !- Handle
  {01758db9-529f-4d73-82e1-38b6a78f6f4a}, !- Name
  {c406b4f4-3ee1-45b5-84ed-43395110e695}; !- HVAC Component

OS:PortList,
  {50195f3e-39ea-4856-bc0d-632f4f4db0a7}, !- Handle
  {cddec51f-26ed-499c-a59d-84da0829557b}, !- Name
  {c406b4f4-3ee1-45b5-84ed-43395110e695}; !- HVAC Component

OS:Sizing:Zone,
  {7c6281ef-1dd6-4879-a7ee-568a4440c3d8}, !- Handle
  {c406b4f4-3ee1-45b5-84ed-43395110e695}, !- Zone or ZoneList Name
  SupplyAirTemperature,                   !- Zone Cooling Design Supply Air Temperature Input Method
  14,                                     !- Zone Cooling Design Supply Air Temperature {C}
  11.11,                                  !- Zone Cooling Design Supply Air Temperature Difference {deltaC}
  SupplyAirTemperature,                   !- Zone Heating Design Supply Air Temperature Input Method
  40,                                     !- Zone Heating Design Supply Air Temperature {C}
  11.11,                                  !- Zone Heating Design Supply Air Temperature Difference {deltaC}
  0.0085,                                 !- Zone Cooling Design Supply Air Humidity Ratio {kg-H2O/kg-air}
  0.008,                                  !- Zone Heating Design Supply Air Humidity Ratio {kg-H2O/kg-air}
  ,                                       !- Zone Heating Sizing Factor
  ,                                       !- Zone Cooling Sizing Factor
  DesignDay,                              !- Cooling Design Air Flow Method
  ,                                       !- Cooling Design Air Flow Rate {m3/s}
  ,                                       !- Cooling Minimum Air Flow per Zone Floor Area {m3/s-m2}
  ,                                       !- Cooling Minimum Air Flow {m3/s}
  ,                                       !- Cooling Minimum Air Flow Fraction
  DesignDay,                              !- Heating Design Air Flow Method
  ,                                       !- Heating Design Air Flow Rate {m3/s}
  ,                                       !- Heating Maximum Air Flow per Zone Floor Area {m3/s-m2}
  ,                                       !- Heating Maximum Air Flow {m3/s}
  ,                                       !- Heating Maximum Air Flow Fraction
  No,                                     !- Account for Dedicated Outdoor Air System
  NeutralSupplyAir,                       !- Dedicated Outdoor Air System Control Strategy
  autosize,                               !- Dedicated Outdoor Air Low Setpoint Temperature for Design {C}
  autosize;                               !- Dedicated Outdoor Air High Setpoint Temperature for Design {C}

OS:ZoneHVAC:EquipmentList,
  {d16b32d4-c19c-4218-905e-87cce10434e5}, !- Handle
  Zone HVAC Equipment List 1,             !- Name
  {c406b4f4-3ee1-45b5-84ed-43395110e695}; !- Thermal Zone

OS:Space,
  {30957080-7f45-4e36-986c-66894424b768}, !- Handle
  SecondarySchool Corridor B end_a - Story Ground, !- Name
  {59b54229-8fab-44d7-be54-7e9041d5cf99}, !- Space Type Name
  ,                                       !- Default Construction Set Name
  ,                                       !- Default Schedule Set Name
  -0,                                     !- Direction of Relative North {deg}
  -82.6256550198952,                      !- X Origin {m}
  -7.03085685796078,                      !- Y Origin {m}
  0,                                      !- Z Origin {m}
  {dc1ae21d-84b0-4cbd-9d1d-46087dd11ddf}, !- Building Story Name
  {2592fab8-b90d-4ce7-88c3-8ef576192402}; !- Thermal Zone Name

OS:Surface,
  {bffa82cf-4bd5-4741-a2ac-1cfb57768b20}, !- Handle
  Surface 7,                              !- Name
  Floor,                                  !- Surface Type
  ,                                       !- Construction Name
  {30957080-7f45-4e36-986c-66894424b768}, !- Space Name
  Ground,                                 !- Outside Boundary Condition
  ,                                       !- Outside Boundary Condition Object
  NoSun,                                  !- Sun Exposure
  NoWind,                                 !- Wind Exposure
  ,                                       !- View Factor to Ground
  ,                                       !- Number of Vertices
  4.2632564145606e-14, 1.77635683940025e-15, 0, !- X,Y,Z Vertex 1 {m}
  4.2632564145606e-14, 14.0617137159216, 0, !- X,Y,Z Vertex 2 {m}
  4.57200000000005, 14.0617137159216, 0,  !- X,Y,Z Vertex 3 {m}
  4.57200000000005, 1.77635683940025e-15, 0; !- X,Y,Z Vertex 4 {m}

OS:Surface,
  {f58ff03e-0cc5-49c4-8476-01bc986dd376}, !- Handle
  Surface 8,                              !- Name
  Wall,                                   !- Surface Type
  ,                                       !- Construction Name
  {30957080-7f45-4e36-986c-66894424b768}, !- Space Name
  Outdoors,                               !- Outside Boundary Condition
  ,                                       !- Outside Boundary Condition Object
  SunExposed,                             !- Sun Exposure
  WindExposed,                            !- Wind Exposure
  ,                                       !- View Factor to Ground
  ,                                       !- Number of Vertices
  4.2632564145606e-14, 14.0617137159216, 3.9624, !- X,Y,Z Vertex 1 {m}
  4.2632564145606e-14, 14.0617137159216, 0, !- X,Y,Z Vertex 2 {m}
  4.2632564145606e-14, 1.77635683940025e-15, 0, !- X,Y,Z Vertex 3 {m}
  4.2632564145606e-14, 1.77635683940025e-15, 3.9624; !- X,Y,Z Vertex 4 {m}

OS:Surface,
  {d5067442-b597-461e-be83-b6ea728de000}, !- Handle
  Surface 9,                              !- Name
  Wall,                                   !- Surface Type
  ,                                       !- Construction Name
  {30957080-7f45-4e36-986c-66894424b768}, !- Space Name
  Surface,                                !- Outside Boundary Condition
  {480ebaed-b0fc-4e19-ac3c-64186c64048f}, !- Outside Boundary Condition Object
  NoSun,                                  !- Sun Exposure
  NoWind,                                 !- Wind Exposure
  ,                                       !- View Factor to Ground
  ,                                       !- Number of Vertices
  4.57200000000005, 14.0617137159216, 3.9624, !- X,Y,Z Vertex 1 {m}
  4.57200000000005, 14.0617137159216, 0,  !- X,Y,Z Vertex 2 {m}
  4.2632564145606e-14, 14.0617137159216, 0, !- X,Y,Z Vertex 3 {m}
  4.2632564145606e-14, 14.0617137159216, 3.9624; !- X,Y,Z Vertex 4 {m}

OS:Surface,
  {9a4d9976-8a94-4362-8725-fd82a1cccce0}, !- Handle
  Surface 10,                             !- Name
  Wall,                                   !- Surface Type
  ,                                       !- Construction Name
  {30957080-7f45-4e36-986c-66894424b768}, !- Space Name
  Surface,                                !- Outside Boundary Condition
  {57b83708-b03c-4a70-9986-2db051dff1e3}, !- Outside Boundary Condition Object
  NoSun,                                  !- Sun Exposure
  NoWind,                                 !- Wind Exposure
  ,                                       !- View Factor to Ground
  ,                                       !- Number of Vertices
  4.57200000000005, 1.77635683940025e-15, 3.9624, !- X,Y,Z Vertex 1 {m}
  4.57200000000005, 1.77635683940025e-15, 0, !- X,Y,Z Vertex 2 {m}
  4.57200000000005, 14.0617137159216, 0,  !- X,Y,Z Vertex 3 {m}
  4.57200000000005, 14.0617137159216, 3.9624; !- X,Y,Z Vertex 4 {m}

OS:Surface,
  {752a0cbf-a6e7-46ab-be7a-0fcf7b8f1365}, !- Handle
  Surface 11,                             !- Name
  Wall,                                   !- Surface Type
  ,                                       !- Construction Name
  {30957080-7f45-4e36-986c-66894424b768}, !- Space Name
  Surface,                                !- Outside Boundary Condition
  {a5e4eedb-9e10-4438-8812-fd73abcee0c5}, !- Outside Boundary Condition Object
  NoSun,                                  !- Sun Exposure
  NoWind,                                 !- Wind Exposure
  ,                                       !- View Factor to Ground
  ,                                       !- Number of Vertices
  4.2632564145606e-14, 1.77635683940025e-15, 3.9624, !- X,Y,Z Vertex 1 {m}
  4.2632564145606e-14, 1.77635683940025e-15, 0, !- X,Y,Z Vertex 2 {m}
  4.57200000000005, 1.77635683940025e-15, 0, !- X,Y,Z Vertex 3 {m}
  4.57200000000005, 1.77635683940025e-15, 3.9624; !- X,Y,Z Vertex 4 {m}

OS:Surface,