
OS:Version,
  {7814e618-bb81-412e-9e35-dc1ff910537e}, !- Handle
  3.0.0,                                  !- Version Identifier
  rc3;                                    !- Prerelease Identifier

OS:Building,
  {a89ba557-cbf5-42be-a054-dc4a6682acb1}, !- Handle
  90.1-2004|SecondarySchool,              !- Name
  ,                                       !- Building Sector Type
  ,                                       !- North Axis {deg}
  ,                                       !- Nominal Floor to Floor Height {m}
  ,                                       !- Space Type Name
  ,                                       !- Default Construction Set Name
  ;                                       !- Default Schedule Set Name

OS:SpaceType,
  {606edb20-e4bc-46c1-83e0-7e0759e459a4}, !- Handle
  SecondarySchool Kitchen,                !- Name
  ,                                       !- Default Construction Set Name
  ,                                       !- Default Schedule Set Name
  {1f74b047-39d1-4c28-b2cb-cfb19741aced}, !- Group Rendering Name
  ,                                       !- Design Specification Outdoor Air Object Name
  ,                                       !- Standards Template
  SecondarySchool,                        !- Standards Building Type
  Kitchen;                                !- Standards Space Type

OS:Rendering:Color,
  {1f74b047-39d1-4c28-b2cb-cfb19741aced}, !- Handle
  SecondarySchool Kitchen,                !- Name
  78,                                     !- Rendering Red Value
  222,                                    !- Rendering Green Value
  133;                                    !- Rendering Blue Value

OS:SpaceType,
  {8aeed75f-4abc-4247-9090-5795b773f899}, !- Handle
  SecondarySchool Restroom,               !- Name
  ,                                       !- Default Construction Set Name
  ,                                       !- Default Schedule Set Name
  {56fa5c7b-b339-4dd0-a1e5-f1297ea432e1}, !- Group Rendering Name
  ,                                       !- Design Specification Outdoor Air Object Name
  ,                                       !- Standards Template
  SecondarySchool,                        !- Standards Building Type
  Restroom;                               !- Standards Space Type

OS:Rendering:Color,
  {56fa5c7b-b339-4dd0-a1e5-f1297ea432e1}, !- Handle
  SecondarySchool Restroom,               !- Name
  169,                                    !- Rendering Red Value
  169,                                    !- Rendering Green Value
  31;                                     !- Rendering Blue Value

OS:SpaceType,
  {5baa0f16-cc52-4453-9a44-03ddb0495e92}, !- Handle
  SecondarySchool Lobby,                  !- Name
  ,                                       !- Default Construction Set Name
  ,                                       !- Default Schedule Set Name
  {71850d28-9dcb-4698-b282-4303f73b66c4}, !- Group Rendering Name
  ,                                       !- Design Specification Outdoor Air Object Name
  ,                                       !- Standards Template
  SecondarySchool,                        !- Standards Building Type
  Lobby;                                  !- Standards Space Type

OS:Rendering:Color,
  {71850d28-9dcb-4698-b282-4303f73b66c4}, !- Handle
  SecondarySchool Lobby,                  !- Name
  230,                                    !- Rendering Red Value
  157,                                    !- Rendering Green Value
  120;                                    !- Rendering Blue Value

OS:SpaceType,
  {3f8a6767-ba54-4dff-9667-84c0f3d20638}, !- Handle
  SecondarySchool Cafeteria,              !- Name
  ,                                       !- Default Construction Set Name
  ,                                       !- Default Schedule Set Name
  {1ca13ae0-637c-4dc2-b0ad-d3d1195e4f9e}, !- Group Rendering Name
  ,                                       !- Design Specification Outdoor Air Object Name
  ,                                       !- Standards Template
  SecondarySchool,                        !- Standards Building Type
  Cafeteria;                              !- Standards Space Type

OS:Rendering:Color,
  {1ca13ae0-637c-4dc2-b0ad-d3d1195e4f9e}, !- Handle
  SecondarySchool Cafeteria,              !- Name
  31,                                     !- Rendering Red Value
  169,                                    !- Rendering Green Value
  34;                                     !- Rendering Blue Value

OS:SpaceType,
  {13b79c1f-c210-4681-aefe-76c4c9e20872}, !- Handle
  SecondarySchool Mechanical,             !- Name
  ,                                       !- Default Construction Set Name
  ,                                       !- Default Schedule Set Name
  {61e26df7-ebc5-4f86-83c3-f82b1935d76f}, !- Group Rendering Name
  ,                                       !- Design Specification Outdoor Air Object Name
  ,                                       !- Standards Template
  SecondarySchool,                        !- Standards Building Type
  Mechanical;                             !- Standards Space Type

OS:Rendering:Color,
  {61e26df7-ebc5-4f86-83c3-f82b1935d76f}, !- Handle
  SecondarySchool Mechanical,             !- Name
  41,                                     !- Rendering Red Value
  31,                                     !- Rendering Green Value
  169;                                    !- Rendering Blue Value

OS:SpaceType,
  {0ac836ca-4047-466a-81df-14a44128f5a2}, !- Handle
  SecondarySchool Library,                !- Name
  ,                                       !- Default Construction Set Name
  ,                                       !- Default Schedule Set Name
  {6de9e0e1-1bca-4325-a609-2e51ccb0afd3}, !- Group Rendering Name
  ,                                       !- Design Specification Outdoor Air Object Name
  ,                                       !- Standards Template
  SecondarySchool,                        !- Standards Building Type
  Library;                                !- Standards Space Type

OS:Rendering:Color,
  {6de9e0e1-1bca-4325-a609-2e51ccb0afd3}, !- Handle
  SecondarySchool Library,                !- Name
  230,                                    !- Rendering Red Value
  196,                                    !- Rendering Green Value
  120;                                    !- Rendering Blue Value

OS:SpaceType,
  {e82408da-429e-4e2a-b998-a6ce11e83290}, !- Handle
  SecondarySchool ComputerRoom,           !- Name
  ,                                       !- Default Construction Set Name
  ,                                       !- Default Schedule Set Name
  {8e1fe271-39e8-499e-bf13-5574ecbed375}, !- Group Rendering Name
  ,                                       !- Design Specification Outdoor Air Object Name
  ,                                       !- Standards Template
  SecondarySchool,                        !- Standards Building Type
  ComputerRoom;                           !- Standards Space Type

OS:Rendering:Color,
  {8e1fe271-39e8-499e-bf13-5574ecbed375}, !- Handle
  SecondarySchool ComputerRoom,           !- Name
  120,                                    !- Rendering Red Value
  230,                                    !- Rendering Green Value
  199;                                    !- Rendering Blue Value

OS:SpaceType,
  {afa6bb43-5bbd-40dc-9628-fc0903f4cba7}, !- Handle
  SecondarySchool Auditorium,             !- Name
  ,                                       !- Default Construction Set Name
  ,                                       !- Default Schedule Set Name
  {067f9373-d085-485a-becb-4f4d22706745}, !- Group Rendering Name
  ,                                       !- Design Specification Outdoor Air Object Name
  ,                                       !- Standards Template
  SecondarySchool,                        !- Standards Building Type
  Auditorium;                             !- Standards Space Type

OS:Rendering:Color,
  {067f9373-d085-485a-becb-4f4d22706745}, !- Handle
  SecondarySchool Auditorium,             !- Name
  230,                                    !- Rendering Red Value
  196,                                    !- Rendering Green Value
  120;                                    !- Rendering Blue Value

OS:SpaceType,
  {719cfcf6-8388-449f-918d-acefc312c4de}, !- Handle
  SecondarySchool Office,                 !- Name
  ,                                       !- Default Construction Set Name
  ,                                       !- Default Schedule Set Name
  {58896164-4d46-4bc9-9d2c-146287215555}, !- Group Rendering Name
  ,                                       !- Design Specification Outdoor Air Object Name
  ,                                       !- Standards Template
  SecondarySchool,                        !- Standards Building Type
  Office;                                 !- Standards Space Type

OS:Rendering:Color,
  {58896164-4d46-4bc9-9d2c-146287215555}, !- Handle
  SecondarySchool Office,                 !- Name
  120,                                    !- Rendering Red Value
  230,                                    !- Rendering Green Value
  199;                                    !- Rendering Blue Value

OS:SpaceType,
  {93f7d369-74aa-429f-adc7-e5422a980a8c}, !- Handle
  SecondarySchool Gym,                    !- Name
  ,                                       !- Default Construction Set Name
  ,                                       !- Default Schedule Set Name
  {1d063f43-2eb6-4128-8058-1269c215ad6f}, !- Group Rendering Name
  ,                                       !- Design Specification Outdoor Air Object Name
  ,                                       !- Standards Template
  SecondarySchool,                        !- Standards Building Type
  Gym;                                    !- Standards Space Type

OS:Rendering:Color,
  {1d063f43-2eb6-4128-8058-1269c215ad6f}, !- Handle
  SecondarySchool Gym,                    !- Name
  154,                                    !- Rendering Red Value
  230,                                    !- Rendering Green Value
  120;                                    !- Rendering Blue Value

OS:SpaceType,
  {1c2cde1c-b210-475c-8dc2-01d4971b7add}, !- Handle
  SecondarySchool Corridor,               !- Name
  ,                                       !- Default Construction Set Name
  ,                                       !- Default Schedule Set Name
  {8776ffbf-30a6-4ed4-9a9c-94cf588dd9e9}, !- Group Rendering Name
  ,                                       !- Design Specification Outdoor Air Object Name
  ,                                       !- Standards Template
  SecondarySchool,                        !- Standards Building Type
  Corridor;                               !- Standards Space Type

OS:Rendering:Color,
  {8776ffbf-30a6-4ed4-9a9c-94cf588dd9e9}, !- Handle
  SecondarySchool Corridor,               !- Name
  169,                                    !- Rendering Red Value
  31,                                     !- Rendering Green Value
  31;                                     !- Rendering Blue Value

OS:SpaceType,
  {a4833ad7-8d44-4c8c-9fb7-7675330371d1}, !- Handle
  SecondarySchool Classroom,              !- Name
  ,                                       !- Default Construction Set Name
  ,                                       !- Default Schedule Set Name
  {c76956ae-0da6-4aed-b437-07f0123ce729}, !- Group Rendering Name
  ,                                       !- Design Specification Outdoor Air Object Name
  ,                                       !- Standards Template
  SecondarySchool,                        !- Standards Building Type
  Classroom;                              !- Standards Space Type

OS:Rendering:Color,
  {c76956ae-0da6-4aed-b437-07f0123ce729}, !- Handle
  SecondarySchool Classroom,              !- Name
  120,                                    !- Rendering Red Value
  230,                                    !- Rendering Green Value
  199;                                    !- Rendering Blue Value

OS:Site,
  {b796df42-32cf-4548-acd1-ae2630cf08cc}, !- Handle
  Site 1,                                 !- Name
  ,                                       !- Latitude {deg}
  ,                                       !- Longitude {deg}
  ,                                       !- Time Zone {hr}
  ,                                       !- Elevation {m}
  ;                                       !- Terrain

OS:BuildingStory,
  {bce25d24-5ad7-4b24-bbee-09c12d085b4f}, !- Handle
  Story Ground,                           !- Name
  0,                                      !- Nominal Z Coordinate {m}
  3.9624,                                 !- Nominal Floor to Floor Height {m}
  ,                                       !- Default Construction Set Name
  ,                                       !- Default Schedule Set Name
  ;                                       !- Group Rendering Name

OS:Space,
  {432c0168-bbe4-4a37-9c44-7a99e635247f}, !- Handle
  SecondarySchool Classroom A end_a - Story Ground, !- Name
  {a4833ad7-8d44-4c8c-9fb7-7675330371d1}, !- Space Type Name
  ,                                       !- Default Construction Set Name
  ,                                       !- Default Schedule Set Name
  -0,                                     !- Direction of Relative North {deg}
  -82.6256550198952,                      !- X Origin {m}
  -17.0032615711412,                      !- Y Origin {m}
  0,                                      !- Z Origin {m}
  {bce25d24-5ad7-4b24-bbee-09c12d085b4f}, !- Building Story Name
  {cc3fc060-85db-4eb3-afb0-3231e0153f1b}; !- Thermal Zone Name

OS:Surface,
  {7d800ec3-8a39-4523-b597-3c23790b6e31}, !- Handle
  Surface 1,                              !- Name
  Floor,                                  !- Surface Type
  ,                                       !- Construction Name
  {432c0168-bbe4-4a37-9c44-7a99e635247f}, !- Space Name
  Ground,                                 !- Outside Boundary Condition
  ,                                       !- Outside Boundary Condition Object
  NoSun,                                  !- Sun Exposure
  NoWind,                                 !- Wind Exposure
  ,                                       !- View Factor to Ground
  ,                                       !- Number of Vertices
  4.2632564145606e-14, -3.5527136788005e-14, 0, !- X,Y,Z Vertex 1 {m}
  4.2632564145606e-14, 9.97240471318038, 0, !- X,Y,Z Vertex 2 {m}
  4.57200000000005, 9.97240471318038, 0,  !- X,Y,Z Vertex 3 {m}
  4.57200000000005, -3.5527136788005e-14, 0; !- X,Y,Z Vertex 4 {m}

OS:Surface,
  {13db411a-1b2f-4b74-b9b3-3f40169ad4f2}, !- Handle
  Surface 2,                              !- Name
  Wall,                                   !- Surface Type
  ,                                       !- Construction Name
  {432c0168-bbe4-4a37-9c44-7a99e635247f}, !- Space Name
  Outdoors,                               !- Outside Boundary Condition
  ,                                       !- Outside Boundary Condition Object
  SunExposed,                             !- Sun Exposure
  WindExposed,                            !- Wind Exposure
  ,                                       !- View Factor to Ground
  ,                                       !- Number of Vertices
  4.2632564145606e-14, 9.97240471318038, 3.9624, !- X,Y,Z Vertex 1 {m}
  4.2632564145606e-14, 9.97240471318038, 0, !- X,Y,Z Vertex 2 {m}
  4.2632564145606e-14, -3.5527136788005e-14, 0, !- X,Y,Z Vertex 3 {m}
  4.2632564145606e-14, -3.5527136788005e-14, 3.9624; !- X,Y,Z Vertex 4 {m}

OS:Surface,
  {a8f93bbb-b1cf-4c72-ab32-b2fb02c0cd3b}, !- Handle
  Surface 3,                              !- Name
  Wall,                                   !- Surface Type
  ,                                       !- Construction Name
  {432c0168-bbe4-4a37-9c44-7a99e635247f}, !- Space Name
  Surface,                                !- Outside Boundary Condition
  {b5018189-3e2d-4149-be05-bd56bb2720bd}, !- Outside Boundary Condition Object
  NoSun,                                  !- Sun Exposure
  NoWind,                                 !- Wind Exposure
  ,                                       !- View Factor to Ground
  ,                                       !- Number of Vertices
  4.57200000000005, 9.97240471318038, 3.9624, !- X,Y,Z Vertex 1 {m}
  4.57200000000005, 9.97240471318038, 0,  !- X,Y,Z Vertex 2 {m}
  4.2632564145606e-14, 9.97240471318038, 0, !- X,Y,Z Vertex 3 {m}
  4.2632564145606e-14, 9.97240471318038, 3.9624; !- X,Y,Z Vertex 4 {m}

OS:Surface,
  {3dec9da6-a5d6-43cb-8192-7e38347fd9a5}, !- Handle
  Surface 4,                              !- Name
  Wall,                                   !- Surface Type
  ,                                       !- Construction Name
  {432c0168-bbe4-4a37-9c44-7a99e635247f}, !- Space Name
  Surface,                                !- Outside Boundary Condition
  {3464cd23-3b56-4052-9efa-2ff61dd05179}, !- Outside Boundary Condition Object
  NoSun,                                  !- Sun Exposure
  NoWind,                                 !- Wind Exposure
  ,                                       !- View Factor to Ground
  ,                                       !- Number of Vertices
  4.57200000000005, -3.5527136788005e-14, 3.9624, !- X,Y,Z Vertex 1 {m}
  4.57200000000005, -3.5527136788005e-14, 0, !- X,Y,Z Vertex 2 {m}
  4.57200000000005, 9.97240471318038, 0,  !- X,Y,Z Vertex 3 {m}
  4.57200000000005, 9.97240471318038, 3.9624; !- X,Y,Z Vertex 4 {m}

OS:Surface,
  {784382ee-4714-4fd8-a40a-733cd732d3f2}, !- Handle
  Surface 5,                              !- Name
  Wall,                                   !- Surface Type
  ,                                       !- Construction Name
  {432c0168-bbe4-4a37-9c44-7a99e635247f}, !- Space Name
  Outdoors,                               !- Outside Boundary Condition
  ,                                       !- Outside Boundary Condition Object
  SunExposed,                             !- Sun Exposure
  WindExposed,                            !- Wind Exposure
  ,                                       !- View Factor to Ground
  ,                                       !- Number of Vertices
  4.2632564145606e-14, -3.5527136788005e-14, 3.9624, !- X,Y,Z Vertex 1 {m}
  4.2632564145606e-14, -3.5527136788005e-14, 0, !- X,Y,Z Vertex 2 {m}
  4.57200000000005, -3.5527136788005e-14, 0, !- X,Y,Z Vertex 3 {m}
  4.57200000000005, -3.5527136788005e-14, 3.9624; !- X,Y,Z Vertex 4 {m}

OS:Surface,
  {98cd7576-897b-4cb6-b4ab-572a048e541a}, !- Handle
  Surface 6,                              !- Name
  RoofCeiling,                            !- Surface Type
  ,                                       !- Construction Name
  {432c0168-bbe4-4a37-9c44-7a99e635247f}, !- Space Name
  Surface,                                !- Outside Boundary Condition
  {2dfa6ef8-6c83-4e9e-ab93-aea67168578e}, !- Outside Boundary Condition Object
  NoSun,                                  !- Sun Exposure
  NoWind,                                 !- Wind Exposure
  ,                                       !- View Factor to Ground
  ,                                       !- Number of Vertices
  4.57200000000005, -3.5527136788005e-14, 3.9624, !- X,Y,Z Vertex 1 {m}
  4.57200000000005, 9.97240471318038, 3.9624, !- X,Y,Z Vertex 2 {m}
  4.2632564145606e-14, 9.97240471318038, 3.9624, !- X,Y,Z Vertex 3 {m}
  4.2632564145606e-14, -3.5527136788005e-14, 3.9624; !- X,Y,Z Vertex 4 {m}

OS:ThermalZone,
  {cc3fc060-85db-4eb3-afb0-3231e0153f1b}, !- Handle
  Zone SecondarySchool Classroom A end_a - Story Ground, !- Name
  1,                                      !- Multiplier
  ,                                       !- Ceiling Height {m}
  ,                                       !- Volume {m3}
  ,                                       !- Floor Area {m2}
  ,                                       !- Zone Inside Convection Algorithm
  ,                                       !- Zone Outside Convection Algorithm
  ,                                       !- Zone Conditioning Equipment List Name
  {d1a63ade-4c9b-49cd-a7bd-7580dc4f7986}, !- Zone Air Inlet Port List
  {08722a07-2253-4bf1-8087-0e4e937b8d9b}, !- Zone Air Exhaust Port List
  {b2878b70-9454-4049-8fc7-3a75323dcf71}, !- Zone Air Node Name
  {a5b86312-6273-40e5-aa76-94fc7fe64eb8}, !- Zone Return Air Port List
  ,                                       !- Primary Daylighting Control Name
  ,                                       !- Fraction of Zone Controlled by Primary Daylighting Control
  ,                                       !- Secondary Daylighting Control Name
  ,                                       !- Fraction of Zone Controlled by Secondary Daylighting Control
  ,                                       !- Illuminance Map Name
  ,                                       !- Group Rendering Name
  ,                                       !- Thermostat Name
  No;                                     !- Use Ideal Air Loads

OS:Node,
  {f7ef38f5-a6c0-4954-8fe2-e12a1a5fc074}, !- Handle
  Node 1,                                 !- Name
  {b2878b70-9454-4049-8fc7-3a75323dcf71}, !- Inlet Port
  ;                                       !- Outlet Port

OS:Connection,
  {b2878b70-9454-4049-8fc7-3a75323dcf71}, !- Handle
  {a51ec3df-ce13-4495-966f-c0cf64c2bfb6}, !- Name
  {cc3fc060-85db-4eb3-afb0-3231e0153f1b}, !- Source Object
  11,                                     !- Outlet Port
  {f7ef38f5-a6c0-4954-8fe2-e12a1a5fc074}, !- Target Object
  2;                                      !- Inlet Port

OS:PortList,
  {d1a63ade-4c9b-49cd-a7bd-7580dc4f7986}, !- Handle
  {c6123b63-6e7b-4a4d-b9c2-bbd7faac2877}, !- Name
  {cc3fc060-85db-4eb3-afb0-3231e0153f1b}; !- HVAC Component

OS:PortList,
  {08722a07-2253-4bf1-8087-0e4e937b8d9b}, !- Handle
  {206693a3-45d5-46b1-89be-db0b4e2b5590}, !- Name
  {cc3fc060-85db-4eb3-afb0-3231e0153f1b}; !- HVAC Component

OS:PortList,
  {a5b86312-6273-40e5-aa76-94fc7fe64eb8}, !- Handle
  {e262b40b-aea9-4377-b7de-c934a7635bd8}, !- Name
  {cc3fc060-85db-4eb3-afb0-3231e0153f1b}; !- HVAC Component

OS:Sizing:Zone,
  {44780d65-38bf-4113-915c-11e8d102e5a3}, !- Handle
  {cc3fc060-85db-4eb3-afb0-3231e0153f1b}, !- Zone or ZoneList Name
  SupplyAirTemperature,                   !- Zone Cooling Design Supply Air Temperature Input Method
  14,                                     !- Zone Cooling Design Supply Air Temperature {C}
  11.11,                                  !- Zone Cooling Design Supply Air Temperature Difference {deltaC}
  SupplyAirTemperature,                   !- Zone Heating Design Supply Air Temperature Input Method
  40,                                     !- Zone Heating Design Supply Air Temperature {C}
  11.11,                                  !- Zone Heating Design Supply Air Temperature Difference {deltaC}
  0.0085,                                 !- Zone Cooling Design Supply Air Humidity Ratio {kg-H2O/kg-air}
  0.008,                                  !- Zone Heating Design Supply Air Humidity Ratio {kg-H2O/kg-air}
  ,                                       !- Zone Heating Sizing Factor
  ,                                       !- Zone Cooling Sizing Factor
  DesignDay,                              !- Cooling Design Air Flow Method
  ,                                       !- Cooling Design Air Flow Rate {m3/s}
  ,                                       !- Cooling Minimum Air Flow per Zone Floor Area {m3/s-m2}
  ,                                       !- Cooling Minimum Air Flow {m3/s}
  ,                                       !- Cooling Minimum Air Flow Fraction
  DesignDay,                              !- Heating Design Air Flow Method
  ,                                       !- Heating Design Air Flow Rate {m3/s}
  ,                                       !- Heating Maximum Air Flow per Zone Floor Area {m3/s-m2}
  ,                                       !- Heating Maximum Air Flow {m3/s}
  ,                                       !- Heating Maximum Air Flow Fraction
  No,                                     !- Account for Dedicated Outdoor Air System
  NeutralSupplyAir,                       !- Dedicated Outdoor Air System Control Strategy
  autosize,                               !- Dedicated Outdoor Air Low Setpoint Temperature for Design {C}
  autosize;                               !- Dedicated Outdoor Air High Setpoint Temperature for Design {C}

OS:ZoneHVAC:EquipmentList,
  {a36e7bc0-e0a5-43a1-b538-71e340bfd2b8}, !- Handle
  Zone HVAC Equipment List 1,             !- Name
  {cc3fc060-85db-4eb3-afb0-3231e0153f1b}; !- Thermal Zone

OS:Space,
  {e9eea590-03a9-4a88-b1f2-8af0cb2f441b}, !- Handle
  SecondarySchool Corridor B end_a - Story Ground, !- Name
  {1c2cde1c-b210-475c-8dc2-01d4971b7add}, !- Space Type Name
  ,                                       !- Default Construction Set Name
  ,                                       !- Default Schedule Set Name
  -0,                                     !- Direction of Relative North {deg}
  -82.6256550198952,                      !- X Origin {m}
  -7.03085685796078,                      !- Y Origin {m}
  0,                                      !- Z Origin {m}
  {bce25d24-5ad7-4b24-bbee-09c12d085b4f}, !- Building Story Name
  {5c932cca-15a2-4b83-9234-a85e4cbb7409}; !- Thermal Zone Name

OS:Surface,
  {08c47bd5-b2e8-4059-94e1-032896d1d951}, !- Handle
  Surface 7,                              !- Name
  Floor,                                  !- Surface Type
  ,                                       !- Construction Name
  {e9eea590-03a9-4a88-b1f2-8af0cb2f441b}, !- Space Name
  Ground,                                 !- Outside Boundary Condition
  ,                                       !- Outside Boundary Condition Object
  NoSun,                                  !- Sun Exposure
  NoWind,                                 !- Wind Exposure
  ,                                       !- View Factor to Ground
  ,                                       !- Number of Vertices
  4.2632564145606e-14, 1.77635683940025e-15, 0, !- X,Y,Z Vertex 1 {m}
  4.2632564145606e-14, 14.0617137159216, 0, !- X,Y,Z Vertex 2 {m}
  4.57200000000005, 14.0617137159216, 0,  !- X,Y,Z Vertex 3 {m}
  4.57200000000005, 1.77635683940025e-15, 0; !- X,Y,Z Vertex 4 {m}

OS:Surface,
  {a7681452-689b-4fdf-a1ce-0b71ff454f76}, !- Handle
  Surface 8,                              !- Name
  Wall,                                   !- Surface Type
  ,                                       !- Construction Name
  {e9eea590-03a9-4a88-b1f2-8af0cb2f441b}, !- Space Name
  Outdoors,                               !- Outside Boundary Condition
  ,                                       !- Outside Boundary Condition Object
  SunExposed,                             !- Sun Exposure
  WindExposed,                            !- Wind Exposure
  ,                                       !- View Factor to Ground
  ,                                       !- Number of Vertices
  4.2632564145606e-14, 14.0617137159216, 3.9624, !- X,Y,Z Vertex 1 {m}
  4.2632564145606e-14, 14.0617137159216, 0, !- X,Y,Z Vertex 2 {m}
  4.2632564145606e-14, 1.77635683940025e-15, 0, !- X,Y,Z Vertex 3 {m}
  4.2632564145606e-14, 1.77635683940025e-15, 3.9624; !- X,Y,Z Vertex 4 {m}

OS:Surface,
  {f5283e14-c787-4c5a-a788-0940282e6d53}, !- Handle
  Surface 9,                              !- Name
  Wall,                                   !- Surface Type
  ,                                       !- Construction Name
  {e9eea590-03a9-4a88-b1f2-8af0cb2f441b}, !- Space Name
  Surface,                                !- Outside Boundary Condition
  {216631c5-12cb-4779-9d79-8103932be672}, !- Outside Boundary Condition Object
  NoSun,                                  !- Sun Exposure
  NoWind,                                 !- Wind Exposure
  ,                                       !- View Factor to Ground
  ,                                       !- Number of Vertices
  4.57200000000005, 14.0617137159216, 3.9624, !- X,Y,Z Vertex 1 {m}
  4.57200000000005, 14.0617137159216, 0,  !- X,Y,Z Vertex 2 {m}
  4.2632564145606e-14, 14.0617137159216, 0, !- X,Y,Z Vertex 3 {m}
  4.2632564145606e-14, 14.0617137159216, 3.9624; !- X,Y,Z Vertex 4 {m}

OS:Surface,
  {35add97a-1729-4022-bb6c-280f6c44db1c}, !- Handle
  Surface 10,                             !- Name
  Wall,                                   !- Surface Type
  ,                                       !- Construction Name
  {e9eea590-03a9-4a88-b1f2-8af0cb2f441b}, !- Space Name
  Surface,                                !- Outside Boundary Condition
  {95e21a85-e80f-4ca3-bb25-fc031efb8d2e}, !- Outside Boundary Condition Object
  NoSun,                                  !- Sun Exposure
  NoWind,                                 !- Wind Exposure
  ,                                       !- View Factor to Ground
  ,                                       !- Number of Vertices
  4.57200000000005, 1.77635683940025e-15, 3.9624, !- X,Y,Z Vertex 1 {m}
  4.57200000000005, 1.77635683940025e-15, 0, !- X,Y,Z Vertex 2 {m}
  4.57200000000005, 14.0617137159216, 0,  !- X,Y,Z Vertex 3 {m}
  4.57200000000005, 14.0617137159216, 3.9624; !- X,Y,Z Vertex 4 {m}

OS:Surface,
  {b5018189-3e2d-4149-be05-bd56bb2720bd}, !- Handle
  Surface 11,                             !- Name
  Wall,                                   !- Surface Type
  ,                                       !- Construction Name
  {e9eea590-03a9-4a88-b1f2-8af0cb2f441b}, !- Space Name
  Surface,                                !- Outside Boundary Condition
  {a8f93bbb-b1cf-4c72-ab32-b2fb02c0cd3b}, !- Outside Boundary Condition Object
  NoSun,                                  !- Sun Exposure
  NoWind,                                 !- Wind Exposure
  ,                                       !- View Factor to Ground
  ,                                       !- Number of Vertices
  4.2632564145606e-14, 1.77635683940025e-15, 3.9624, !- X,Y,Z Vertex 1 {m}
  4.2632564145606e-14, 1.77635683940025e-15, 0, !- X,Y,Z Vertex 2 {m}
  4.57200000000005, 1.77635683940025e-15, 0, !- X,Y,Z Vertex 3 {m}